
     RDKit          3D

 14 14  0  0  0  0  0  0  0  0999 V2000
    7.6210   -0.9885   15.0714 C   0  0  0  0  0  3  0  0  0  0  0  0
    6.4961   -1.3083   15.9380 N   0  0  0  0  0  0  0  0  0  0  0  0
    7.2602   -3.2178   12.8823 O   0  0  0  0  0  1  0  0  0  0  0  0
    3.6643   -3.9276   17.2191 C   0  0  0  0  0  2  0  0  0  0  0  0
    8.3686   -4.6946   14.3703 C   0  0  0  0  0  1  0  0  0  0  0  0
    8.4331   -2.2425   14.7284 C   0  0  0  0  0  2  0  0  0  0  0  0
    3.4204   -2.3776   15.2515 C   0  0  0  0  0  2  0  0  0  0  0  0
    6.9521   -0.3961   13.8719 C   0  0  0  0  0  3  0  0  0  0  0  0
    4.0567   -3.6612   15.7740 C   0  0  0  0  0  2  0  0  0  0  0  0
    4.0624   -1.1414   15.8688 C   0  0  0  0  0  2  0  0  0  0  0  0
    7.5855   -3.4075   14.2253 C   0  0  0  0  0  3  0  0  0  0  0  0
    2.2288   -4.4115   17.2975 C   0  0  0  0  0  1  0  0  0  0  0  0
    5.6725   -0.3666   14.0374 N   0  0  0  0  0  0  0  0  0  0  0  0
    5.4313   -0.9258   15.3191 C   0  0  0  0  0  0  0  0  0  0  0  0
  1  6  1  0
  1  2  1  0
  3 11  1  0
  4 12  1  0
  7 10  1  0
  8 13  2  0
  8  1  1  0
  9  7  1  0
  9  4  1  0
 10 14  1  0
 11  5  1  0
 11  6  1  0
 13 14  1  0
 14  2  2  0
M  RAD  8   1   2   3   2   4   3   5   2   6   3   7   3   8   2   9   3
M  RAD  3  10   3  11   2  12   2
M  END
$$$$
/tmp/tmpa6i0csts
     RDKit          3D

 20 21  0  0  1  0  0  0  0  0999 V2000
    5.9788   -1.0282   13.9052 C   0  0  0  0  0  3  0  0  0  0  0  0
    5.4276   -2.9539   15.4602 C   0  0  0  0  0  0  0  0  0  0  0  0
    3.8283   -2.2091   12.4172 C   0  0  0  0  0  3  0  0  0  0  0  0
    3.7436    0.3226   14.9458 N   0  0  0  0  0  1  0  0  0  0  0  0
    2.2744   -4.2960   13.9463 C   0  0  0  0  0  1  0  0  0  0  0  0
    2.4760   -2.8530   14.3761 C   0  0  0  0  0  3  0  0  0  0  0  0
    1.2427   -2.0327   14.0427 C   0  0  0  0  0  1  0  0  0  0  0  0
    6.0894   -1.5977   17.4795 C   0  0  0  0  0  2  0  0  0  0  0  0
    6.7558   -4.3203   17.4729 S   0  0  0  0  0  1  0  0  0  0  0  0
    4.2178   -0.8032   15.6414 N   0  0  0  0  0  2  0  0  0  0  0  0
    7.2165    0.0315   15.9337 C   0  0  0  0  0  2  0  0  0  0  0  0
    5.5369   -4.2592   14.7229 C   0  0  0  0  0  1  0  0  0  0  0  0
    4.9941   -1.5854   11.7103 C   0  0  0  0  0  2  0  0  0  0  0  0
    7.3750   -0.8388   17.1735 C   0  0  0  0  0  2  0  0  0  0  0  0
    7.2490   -0.8051   14.6959 C   0  0  0  0  0  0  0  0  0  0  0  0
    5.9970   -2.8713   16.6918 C   0  0  0  0  0  0  0  0  0  0  0  0
    4.8341   -1.7497   14.6971 C   0  0  1  0  0  0  0  0  0  0  0  0
    8.3015   -1.3245   14.3533 O   0  0  0  0  0  0  0  0  0  0  0  0
    3.7166   -2.2508   13.7613 C   0  0  0  0  0  0  0  0  0  0  0  0
    6.2498   -1.6871   12.5540 C   0  0  0  0  0  2  0  0  0  0  0  0
  1 20  1  0
  1 17  1  0
  2 12  1  0
  3 19  2  0
  5  6  1  0
  6  7  1  0
  8 16  1  0
 10  4  1  0
 11 15  1  0
 11 14  1  0
 13  3  1  0
 14  8  1  0
 15  1  1  0
 16  2  2  0
 16  9  1  0
 17  2  1  0
 17 10  1  1
 18 15  2  0
 19  6  1  0
 19 17  1  0
 20 13  1  0
M  RAD  8   1   2   3   2   4   3   5   2   6   2   7   2   8   3   9   2
M  RAD  6  10   2  11   3  12   2  13   3  14   3  20   3
M  END
$$$$
/tmp/tmpe9o3n9se
     RDKit          3D

 20 21  0  0  1  0  0  0  0  0999 V2000
    7.4526   -4.2137   14.3997 C   0  0  0  0  0  3  0  0  0  0  0  0
    3.0725    2.6566   13.7438 N   0  0  0  0  0  1  0  0  0  0  0  0
    2.5496    0.4175   14.5009 C   0  0  0  0  0  2  0  0  0  0  0  0
    4.6484    0.8746   13.2374 C   0  0  0  0  0  2  0  0  0  0  0  0
    5.9104    2.8707   12.8511 O   0  0  0  0  0  1  0  0  0  0  0  0
    9.8339   -4.1492   13.9789 C   0  0  0  0  0  3  0  0  0  0  0  0
    5.9947    1.5709   13.3510 C   0  0  0  0  0  2  0  0  0  0  0  0
   11.0050   -3.2165   14.2048 C   0  0  0  0  0  1  0  0  0  0  0  0
    3.0068   -0.6394   15.4471 C   0  0  0  0  0  0  0  0  0  0  0  0
    6.7925   -3.0620   12.3475 C   0  0  0  0  0  2  0  0  0  0  0  0
    3.6566    1.4279   14.2517 C   0  0  0  0  0  3  0  0  0  0  0  0
    3.7699   -1.7060   14.9725 O   0  0  0  0  0  0  0  0  0  0  0  0
    8.7952   -3.9519   15.0585 C   0  0  0  0  0  2  0  0  0  0  0  0
    9.1395   -3.8083   12.6817 C   0  0  0  0  0  2  0  0  0  0  0  0
    2.7230   -0.5423   16.6713 O   0  0  0  0  0  0  0  0  0  0  0  0
    5.1162   -3.7035   15.0572 C   0  0  0  0  0  2  0  0  0  0  0  0
    7.6798   -4.1627   12.8945 C   0  0  0  0  0  3  0  0  0  0  0  0
    6.4814   -3.1002   14.7530 C   0  0  0  0  0  3  0  0  0  0  0  0
    4.2493   -2.7275   15.8349 C   0  0  0  0  0  2  0  0  0  0  0  0
    6.4076   -2.2010   13.5316 C   0  0  0  0  0  2  0  0  0  0  0  0
  1 13  1  0
  3  9  1  0
  5  7  1  0
  6  8  1  0
  7  4  1  0
  9 15  2  0
  9 12  1  0
 10 20  1  0
 11  2  1  0
 11  3  1  0
 11  4  1  0
 12 19  1  0
 13  6  1  0
 14  6  1  0
 17 10  1  0
 17 14  1  0
 17  1  1  0
 18  1  1  0
 18 16  1  0
 19 16  1  0
 20 18  1  0
M  RAD  8   1   2   2   3   3   3   4   3   5   2   6   2   7   3   8   2
M  RAD  8  10   3  11   2  13   3  14   3  16   3  17   2  18   2  19   3
M  RAD  1  20   3
M  END
$$$$
/tmp/tmpes4yh2b7
     RDKit          3D

 20 22  0  0  1  0  0  0  0  0999 V2000
    2.9750    0.8677   12.7276 C   0  0  0  0  0  0  0  0  0  0  0  0
    4.4723   -1.7180   14.6282 C   0  0  0  0  0  3  0  0  0  0  0  0
    1.6088    2.4186   11.5304 C   0  0  0  0  0  3  0  0  0  0  0  0
    8.6681   -3.7334   16.8404 O   0  0  0  0  0  0  0  0  0  0  0  0
    2.2448   -0.9480   13.7739 N   0  0  0  0  0  0  0  0  0  0  0  0
    5.7687   -2.0085   13.8994 C   0  0  0  0  0  2  0  0  0  0  0  0
    3.5898   -0.7773   13.8686 C   0  0  0  0  0  0  0  0  0  0  0  0
    9.8385   -4.1752   14.8442 C   0  0  0  0  0  2  0  0  0  0  0  0
    5.1236    0.1509   16.0052 O   0  0  0  0  0  1  0  0  0  0  0  0
    8.6121   -3.8369   15.6246 C   0  0  0  0  0  0  0  0  0  0  0  0
    4.0313    0.3068   13.2489 O   0  0  0  0  0  0  0  0  0  0  0  0
    0.4727    1.6406   11.8515 C   0  0  0  0  0  3  0  0  0  0  0  0
    7.3060   -3.6792   14.9134 C   0  0  0  0  0  2  0  0  0  0  0  0
    0.6016    0.4670   12.6188 C   0  0  0  0  0  3  0  0  0  0  0  0
    4.8608   -1.2228   16.0129 C   0  0  0  0  0  3  0  0  0  0  0  0
   10.8381   -3.0369   14.9172 C   0  0  0  0  0  1  0  0  0  0  0  0
    2.8887    2.0335   11.9723 C   0  0  0  0  0  3  0  0  0  0  0  0
    1.8821    0.1160   13.0383 C   0  0  0  0  0  0  0  0  0  0  0  0
    6.1452   -1.9632   16.3170 C   0  0  0  0  0  2  0  0  0  0  0  0
    6.8158   -2.2405   14.9762 C   0  0  0  0  0  3  0  0  0  0  0  0
  1 11  1  0
  1 18  1  0
  2  7  1  0
  2  6  1  0
  2 15  1  0
  3 12  2  0
  6 20  1  0
  7  5  2  0
  8 10  1  0
  8 16  1  0
 10  4  2  0
 11  7  1  0
 12 14  1  0
 13 10  1  0
 15  9  1  0
 15 19  1  0
 17  3  1  0
 17  1  2  0
 18 14  2  0
 18  5  1  0
 20 13  1  0
 20 19  1  0
M  RAD  8   2   2   3   2   6   3   8   3   9   2  12   2  13   3  14   2
M  RAD  5  15   2  16   2  17   2  19   3  20   2
M  END
$$$$
/tmp/tmp6o6h7p4k
     RDKit          3D

 20 20  0  0  1  0  0  0  0  0999 V2000
    3.4250   -2.6679   17.3790 N   0  0  0  0  0  1  0  0  0  0  0  0
    5.9172   -0.2896   13.8533 C   0  0  0  0  0  3  0  0  0  0  0  0
    8.1831   -3.1856   14.5547 O   0  0  0  0  0  0  0  0  0  0  0  0
    6.9886   -3.5060   15.2058 C   0  0  0  0  0  3  0  0  0  0  0  0
    6.2944   -1.1302   14.9981 N   0  0  0  0  0  2  0  0  0  0  0  0
    9.0073   -2.8389   15.5214 O   0  0  0  0  0  1  0  0  0  0  0  0
    7.5081   -5.9241   15.5144 C   0  0  0  0  0  1  0  0  0  0  0  0
    3.3172    1.6739   13.0020 C   0  0  0  0  0  0  0  0  0  0  0  0
    4.7415   -2.5793   16.7756 C   0  0  0  0  0  2  0  0  0  0  0  0
    8.0963   -0.4158   12.6389 C   0  0  0  0  0  1  0  0  0  0  0  0
    6.5815   -4.9269   14.8466 C   0  0  0  0  0  2  0  0  0  0  0  0
    4.0654    0.7124   12.5944 N   0  0  0  0  0  0  0  0  0  0  0  0
    2.0170    3.7858   12.5586 C   0  0  0  0  0  1  0  0  0  0  0  0
    4.6384   -2.8034   15.3925 O   0  0  0  0  0  0  0  0  0  0  0  0
    2.9877    1.6294   14.4456 C   0  0  0  0  0  2  0  0  0  0  0  0
    6.6158   -0.7359   12.5694 C   0  0  0  0  0  2  0  0  0  0  0  0
    5.8861   -2.5254   14.7867 C   0  0  0  0  0  3  0  0  0  0  0  0
    4.3968   -0.1978   13.6768 C   0  0  0  0  0  3  0  0  0  0  0  0
    3.7446    0.4001   14.9259 C   0  0  0  0  0  2  0  0  0  0  0  0
    2.8610    2.6912   12.1110 N   0  0  0  0  0  2  0  0  0  0  0  0
  2 16  1  0
  2  5  1  0
  3  6  1  0
  4 11  1  0
  4  3  1  0
  7 11  1  0
  8 15  1  0
  9  1  1  0
 12  8  2  0
 12 18  1  0
 14  9  1  0
 15 19  1  0
 16 10  1  0
 17  5  1  0
 17  4  1  0
 17 14  1  0
 18  2  1  0
 18 19  1  0
 20 13  1  0
 20  8  1  0
M  RAD  8   1   3   2   2   4   2   5   2   6   2   7   2   9   3  10   2
M  RAD  8  11   3  13   2  15   3  16   3  17   2  18   2  19   3  20   2
M  END
$$$$
/tmp/tmpes052dho
     RDKit          3D

 20 20  0  0  1  0  0  0  0  0999 V2000
    7.7474   -1.9599   12.7810 C   0  0  0  0  0  2  0  0  0  0  0  0
    3.3813   -2.7313   18.2370 C   0  0  0  0  0  1  0  0  0  0  0  0
    6.6393   -1.0864   13.3878 C   0  0  1  0  0  0  0  0  0  0  0  0
    3.9717   -2.3457   16.0039 C   0  0  0  0  0  3  0  0  0  0  0  0
    5.9666   -1.8464   14.5480 C   0  0  0  0  0  2  0  0  0  0  0  0
    8.8992   -3.4935   14.4139 C   0  0  0  0  0  3  0  0  0  0  0  0
    4.5859   -1.3489   15.0130 C   0  0  1  0  0  0  0  0  0  0  0  0
    8.1736   -5.8135   15.1762 C   0  0  0  0  0  1  0  0  0  0  0  0
    3.4457   -1.7077   17.2090 N   0  0  0  0  0  2  0  0  0  0  0  0
    3.4875   -1.6742   14.0128 C   0  0  0  0  0  2  0  0  0  0  0  0
    5.4224    0.3577   16.4948 O   0  0  0  0  0  1  0  0  0  0  0  0
    7.7767    1.1020   13.0652 C   0  0  0  0  0  2  0  0  0  0  0  0
    8.8266   -2.3297   13.7586 C   0  0  0  0  0  3  0  0  0  0  0  0
    2.8709   -2.6643   14.9860 C   0  0  0  0  0  3  0  0  0  0  0  0
    7.2123    0.2145   13.8853 C   0  0  0  0  0  3  0  0  0  0  0  0
    4.5436    0.1246   15.4347 C   0  0  0  0  0  2  0  0  0  0  0  0
    5.7044   -0.8247   12.3832 O   0  0  0  0  0  1  0  0  0  0  0  0
    7.0616   -4.6835   13.3774 N   0  0  0  0  0  2  0  0  0  0  0  0
    1.6183   -2.1950   15.3937 O   0  0  0  0  0  1  0  0  0  0  0  0
    7.9780   -4.6391   14.2875 C   0  0  0  0  0  0  0  0  0  0  0  0
  1 13  1  0
  3 17  1  6
  3  1  1  0
  3  5  1  0
  4  9  1  0
  7  5  1  6
  7  4  1  0
  7 16  1  0
  8 20  1  0
  9  2  1  0
 10 14  1  0
 10  7  1  0
 12 15  2  0
 13  6  2  0
 14 19  1  0
 14  4  1  0
 15  3  1  0
 16 11  1  0
 18 20  2  0
 20  6  1  0
M  RAD  8   1   3   2   2   4   2   5   3   6   2   8   2   9   2  10   3
M  RAD  8  11   2  12   3  13   2  14   2  15   2  16   3  17   2  18   2
M  RAD  1  19   2
M  END
$$$$

     RDKit          3D

 16 17  0  0  0  0  0  0  0  0999 V2000
    5.1670   -1.0328   14.5612 C   0  0  0  0  0  3  0  0  0  0  0  0
    2.7699   -4.4047   15.9873 C   0  0  0  0  0  1  0  0  0  0  0  0
    7.2526   -4.5779   16.0133 C   0  0  0  0  0  3  0  0  0  0  0  0
    7.3703   -2.0540   15.5529 C   0  0  0  0  0  2  0  0  0  0  0  0
    5.0053    0.1807   15.9024 S   0  0  2  0  0  0  0  0  0  0  0  0
    3.5830    0.6648   15.9226 O   0  0  0  0  0  0  0  0  0  0  0  0
    6.0341    0.9105   12.0180 C   0  0  0  0  0  1  0  0  0  0  0  0
    5.9756   -2.2902   14.9472 C   0  0  0  0  0  3  0  0  0  0  0  0
    8.1449   -3.3679   15.7080 C   0  0  0  0  0  2  0  0  0  0  0  0
    5.9860    0.1625   14.3798 C   0  0  0  0  0  3  0  0  0  0  0  0
    5.5173   -0.3986   17.1916 O   0  0  0  0  0  0  0  0  0  0  0  0
    5.3446    1.0783   13.3567 C   0  0  0  0  0  2  0  0  0  0  0  0
    5.1198   -3.2455   15.7967 C   0  0  0  0  0  3  0  0  0  0  0  0
    4.0494   -4.2374   14.7111 S   0  0  0  0  0  0  0  0  0  0  0  0
    8.1377   -5.7309   17.0357 Cl  0  0  0  0  0  0  0  0  0  0  0  0
    5.9526   -4.1669   16.6985 C   0  0  0  0  0  2  0  0  0  0  0  0
  1  8  1  0
  5  1  1  6
  3 15  1  0
  3 16  1  0
  4  9  1  0
  5 11  2  0
  6  5  2  0
  7 12  1  0
  8  4  1  0
  8 13  1  0
  9  3  1  0
 10 12  1  0
 10  1  1  0
 10  5  1  0
 13 14  1  0
 13 16  1  0
 14  2  1  0
M  RAD  8   1   2   2   2   3   2   4   3   7   2   8   2   9   3  10   2
M  RAD  3  12   3  13   2  16   3
M  END
$$$$
/tmp/tmpuyrzub4c
     RDKit          3D

 20 19  0  0  1  0  0  0  0  0999 V2000
    7.2264   -1.9357   12.9567 C   0  0  0  0  0  0  0  0  0  0  0  0
    6.1720   -2.0278   15.2295 C   0  0  0  0  0  0  0  0  0  0  0  0
    7.2718   -3.3232   12.8774 O   0  0  0  0  0  1  0  0  0  0  0  0
    3.5426   -5.8126   15.9437 C   0  0  0  0  0  1  0  0  0  0  0  0
    1.6712    1.2702   11.5926 C   0  0  0  0  0  1  0  0  0  0  0  0
    3.6499   -4.3632   16.2658 C   0  0  0  0  0  3  0  0  0  0  0  0
    1.8636   -0.7175   12.5292 C   0  0  0  0  0  2  0  0  0  0  0  0
    2.6192   -1.5984   16.5538 N   0  0  0  0  0  1  0  0  0  0  0  0
    2.0028   -1.4570   13.7721 N   0  0  0  0  0  2  0  0  0  0  0  0
    7.7636   -1.2543   12.0429 O   0  0  0  0  0  0  0  0  0  0  0  0
    5.1051   -0.2719   16.4885 O   0  0  0  0  0  1  0  0  0  0  0  0
    6.3898    0.1661   14.0170 C   0  0  0  0  0  2  0  0  0  0  0  0
    3.6209   -1.9738   15.5645 C   0  0  1  0  0  0  0  0  0  0  0  0
    5.0187   -1.6156   16.1130 C   0  0  0  0  0  3  0  0  0  0  0  0
    3.5198   -3.4545   15.2981 C   0  0  0  0  0  3  0  0  0  0  0  0
    5.5267    0.5240   12.9803 O   0  0  0  0  0  1  0  0  0  0  0  0
    6.5570   -1.2845   14.0532 N   0  0  0  0  0  0  0  0  0  0  0  0
    3.3500   -1.2090   14.2680 C   0  0  0  0  0  2  0  0  0  0  0  0
    1.4963    0.6007   12.8026 O   0  0  0  0  0  0  0  0  0  0  0  0
    6.7916   -3.0820   15.5342 O   0  0  0  0  0  0  0  0  0  0  0  0
  1  3  1  0
  1 17  1  0
  2 20  2  0
  2 14  1  0
  4  6  1  0
  5 19  1  0
  7 19  1  0
  7  9  1  0
  9 18  1  0
 10  1  2  0
 12 17  1  0
 13  8  1  1
 13 14  1  0
 14 11  1  0
 15 13  1  0
 15  6  2  0
 16 12  1  0
 17  2  1  0
 18 13  1  0
M  RAD  8   3   2   4   2   5   2   6   2   7   3   8   3   9   2  11   2
M  RAD  5  12   3  14   2  15   2  16   2  18   3
M  END
$$$$

     RDKit          3D

 11 11  0  0  0  0  0  0  0  0999 V2000
    8.3002   -1.7971   14.4204 C   0  0  0  0  0  3  0  0  0  0  0  0
    6.8965   -0.9316   16.2447 N   0  0  0  0  0  2  0  0  0  0  0  0
    5.0522   -2.2484   16.7683 O   0  0  0  0  0  0  0  0  0  0  0  0
    6.3463   -2.9786   14.8667 C   0  0  0  0  0  3  0  0  0  0  0  0
    5.0982   -3.6205   14.2555 C   0  0  0  0  0  2  0  0  0  0  0  0
    6.0175   -2.0259   15.9902 C   0  0  0  0  0  0  0  0  0  0  0  0
    7.1325   -2.3682   13.8580 O   0  0  0  0  0  0  0  0  0  0  0  0
    7.9528   -0.5924   15.2984 C   0  0  0  0  0  2  0  0  0  0  0  0
    4.7114   -2.2171   12.3539 O   0  0  0  0  0  1  0  0  0  0  0  0
    4.1803   -2.6060   13.5837 C   0  0  0  0  0  2  0  0  0  0  0  0
    9.0491   -2.7431   15.1302 O   0  0  0  0  0  1  0  0  0  0  0  0
  1 11  1  0
  1  8  1  0
  4  5  1  0
  4  6  1  0
  6  2  1  0
  6  3  2  0
  7  1  1  0
  7  4  1  0
  8  2  1  0
  9 10  1  0
 10  5  1  0
M  RAD  8   1   2   2   2   4   2   5   3   8   3   9   2  10   3  11   2
M  END
$$$$

     RDKit          3D

 16 17  0  0  0  0  0  0  0  0999 V2000
    6.8792   -0.9998   15.3604 N   0  0  0  0  0  0  0  0  0  0  0  0
    9.1890   -0.8695   15.1462 O   0  0  0  0  0  0  0  0  0  0  0  0
    2.9498   -0.0791   14.1709 C   0  0  0  0  0  3  0  0  0  0  0  0
    0.6921    0.6366   13.3722 C   0  0  0  0  0  3  0  0  0  0  0  0
    4.4883   -1.0110   15.6754 C   0  0  0  0  0  2  0  0  0  0  0  0
    1.0978    0.5212   12.1033 C   0  0  0  0  0  3  0  0  0  0  0  0
    2.5362    0.4156   11.7893 C   0  0  0  0  0  3  0  0  0  0  0  0
    8.1485   -2.2822   13.5384 C   0  0  0  0  0  2  0  0  0  0  0  0
    5.6222   -2.3050   13.8320 N   0  0  0  0  0  2  0  0  0  0  0  0
    8.1096   -1.3497   14.7143 C   0  0  0  0  0  0  0  0  0  0  0  0
    5.7255   -1.4458   14.9687 C   0  0  0  0  0  0  0  0  0  0  0  0
    4.0081    0.2427   15.1143 N   0  0  0  0  0  2  0  0  0  0  0  0
    1.6990    0.7489   14.4860 C   0  0  0  0  0  2  0  0  0  0  0  0
    6.6567   -3.4663   12.1069 O   0  0  0  0  0  0  0  0  0  0  0  0
    6.7822   -2.7189   13.1108 C   0  0  0  0  0  0  0  0  0  0  0  0
    3.4208    0.1743   12.7620 C   0  0  0  0  0  3  0  0  0  0  0  0
  3 13  1  0
  3 12  1  0
  4 13  1  0
  6  4  2  0
  7  6  1  0
  7 16  2  0
  8 10  1  0
  9 11  1  0
 10  1  1  0
 10  2  2  0
 11  1  2  0
 11  5  1  0
 12  5  1  0
 14 15  2  0
 15  8  1  0
 15  9  1  0
 16  3  1  0
M  RAD  8   3   2   4   2   5   3   6   2   7   2   8   3   9   2  12   2
M  RAD  2  13   3  16   2
M  END
$$$$
/tmp/tmpnhuf_3va
     RDKit          3D

 20 20  0  0  1  0  0  0  0  0999 V2000
    0.5044   -0.4453   12.7975 C   0  0  0  0  0  3  0  0  0  0  0  0
    9.4249   -1.9636   13.8135 C   0  0  0  0  0  3  0  0  0  0  0  0
    1.2761   -0.2863   11.6135 N   0  0  0  0  0  1  0  0  0  0  0  0
    6.4592   -1.2909   15.7871 C   0  0  0  0  0  3  0  0  0  0  0  0
    4.0940    0.2019   13.4488 O   0  0  0  0  0  0  0  0  0  0  0  0
    1.6672   -1.1500   15.0246 C   0  0  0  0  0  3  0  0  0  0  0  0
    6.5562    0.1865   13.6396 C   0  0  0  0  0  2  0  0  0  0  0  0
    7.1698   -0.8582   14.5262 C   0  0  0  0  0  0  0  0  0  0  0  0
    3.1527   -1.3713   15.1168 C   0  0  0  0  0  3  0  0  0  0  0  0
    3.9966   -0.1185   14.8121 C   0  0  0  0  0  3  0  0  0  0  0  0
    3.0963   -2.8542   13.1966 O   0  0  0  0  0  1  0  0  0  0  0  0
    8.3004   -1.4100   14.1684 C   0  0  0  0  0  0  0  0  0  0  0  0
    3.6120   -2.7076   14.4858 C   0  0  0  0  0  3  0  0  0  0  0  0
    5.2921   -0.3600   12.9598 C   0  0  0  0  0  2  0  0  0  0  0  0
    1.0836   -0.7975   13.9097 C   0  0  0  0  0  0  0  0  0  0  0  0
    7.3260   -1.1079   17.0204 C   0  0  0  0  0  1  0  0  0  0  0  0
    5.8914   -2.7134   15.7320 C   0  0  0  0  0  2  0  0  0  0  0  0
    9.6884   -3.3876   14.1468 C   0  0  0  0  0  1  0  0  0  0  0  0
    3.5219    1.0323   15.5630 N   0  0  0  0  0  1  0  0  0  0  0  0
    5.1217   -2.9751   14.4390 C   0  0  0  0  0  2  0  0  0  0  0  0
  1 15  2  0
  2 18  1  0
  3  1  1  0
  4 17  1  0
  4 16  1  0
  5 10  1  0
  7  8  1  0
  8  4  1  0
  9  6  1  0
 10  9  1  0
 10 19  1  0
 12  2  2  0
 12  8  2  0
 13 11  1  0
 13  9  1  0
 13 20  1  0
 14  5  1  0
 14  7  1  0
 15  6  2  0
 20 17  1  0
M  RAD  8   1   2   2   2   3   3   4   2   6   2   7   3   9   2  10   2
M  RAD  8  11   2  13   2  14   3  16   2  17   3  18   2  19   3  20   3
M  END
$$$$
/tmp/tmpqld6u9qm
     RDKit          3D

 20 19  0  0  1  0  0  0  0  0999 V2000
    5.5586   -0.7815   15.8414 N   0  0  0  0  0  2  0  0  0  0  0  0
    6.0931   -4.4369   16.3690 C   0  0  0  0  0  0  0  0  0  0  0  0
    6.7073    1.1752   13.8344 C   0  0  0  0  0  2  0  0  0  0  0  0
    5.4460   -3.1072   16.5455 C   0  0  0  0  0  2  0  0  0  0  0  0
    3.7410   -3.9582   12.7650 C   0  0  0  0  0  2  0  0  0  0  0  0
    6.9285   -4.9398   17.3573 O   0  0  0  0  0  1  0  0  0  0  0  0
    6.8089    2.5968   13.3897 C   0  0  0  0  0  3  0  0  0  0  0  0
    2.1430   -1.2160   15.8059 C   0  0  0  0  0  1  0  0  0  0  0  0
    5.1527   -0.6802   14.4461 C   0  0  0  0  0  3  0  0  0  0  0  0
    6.3301   -2.0062   15.9808 C   0  0  0  0  0  3  0  0  0  0  0  0
    4.1868   -2.6069   12.2029 C   0  0  0  0  0  3  0  0  0  0  0  0
    7.4066   -1.7787   16.8387 O   0  0  0  0  0  1  0  0  0  0  0  0
    5.2508    0.7660   13.9757 C   0  0  0  0  0  2  0  0  0  0  0  0
    5.9081   -5.0912   15.3103 O   0  0  0  0  0  0  0  0  0  0  0  0
    3.7370   -1.2412   14.2687 C   0  0  0  0  0  3  0  0  0  0  0  0
    6.5224    3.5942   14.2232 C   0  0  0  0  0  2  0  0  0  0  0  0
    2.2764   -4.2563   12.4772 C   0  0  0  0  0  1  0  0  0  0  0  0
    2.7874   -0.4076   14.8680 O   0  0  0  0  0  0  0  0  0  0  0  0
    3.3996   -1.4426   12.7951 C   0  0  0  0  0  2  0  0  0  0  0  0
    4.0956   -2.5850   10.6880 C   0  0  0  0  0  1  0  0  0  0  0  0
  1 10  1  0
  2  4  1  0
  3 13  1  0
  3  7  1  0
  4 10  1  0
  5 17  1  0
  6  2  1  0
  7 16  2  0
  8 18  1  0
  9 13  1  0
  9 15  1  0
  9  1  1  0
 10 12  1  0
 11 20  1  0
 11  5  1  0
 14  2  2  0
 15 19  1  0
 18 15  1  0
 19 11  1  0
M  RAD  8   1   2   3   3   4   3   5   3   6   2   7   2   8   2   9   2
M  RAD  8  10   2  11   2  12   2  13   3  15   2  16   3  17   2  19   3
M  RAD  1  20   2
M  END
$$$$
/tmp/tmp0akkvcdb
     RDKit          3D

 20 21  0  0  1  0  0  0  0  0999 V2000
    5.8955    0.8355   14.3223 C   0  0  0  0  0  2  0  0  0  0  0  0
    6.1582   -3.5249   13.0327 O   0  0  0  0  0  0  0  0  0  0  0  0
    6.5368   -3.3266   15.4393 C   0  0  0  0  0  3  0  0  0  0  0  0
    8.8455    0.6157   13.3826 C   0  0  0  0  0  3  0  0  0  0  0  0
    2.3276   -0.1546   14.4691 O   0  0  0  0  0  1  0  0  0  0  0  0
    4.5345   -3.5574   11.4265 O   0  0  0  0  0  0  0  0  0  0  0  0
    5.6563   -2.1435   15.7888 C   0  0  0  0  0  3  0  0  0  0  0  0
    4.9758   -1.4809   14.6037 C   0  0  0  0  0  3  0  0  0  0  0  0
    8.3242    1.3714   14.5589 C   0  0  0  0  0  2  0  0  0  0  0  0
    4.1575   -2.3743   15.5381 C   0  0  0  0  0  3  0  0  0  0  0  0
    3.7432   -3.7825   13.5535 O   0  0  0  0  0  0  0  0  0  0  0  0
    9.8797    1.0876   12.6945 C   0  0  0  0  0  2  0  0  0  0  0  0
    6.7319   -3.9148   14.2499 C   0  0  0  0  0  3  0  0  0  0  0  0
    4.8084   -3.6376   12.6516 C   0  0  0  0  0  0  0  0  0  0  0  0
    7.1450    0.6404   15.1739 C   0  0  0  0  0  2  0  0  0  0  0  0
    3.4981    0.4434   13.9960 C   0  0  0  0  0  2  0  0  0  0  0  0
    4.4628    0.3373   16.1743 O   0  0  0  0  0  1  0  0  0  0  0  0
    3.8588   -3.7737   14.9705 C   0  0  0  0  0  3  0  0  0  0  0  0
    2.5743   -4.2921   15.5812 C   0  0  0  0  0  1  0  0  0  0  0  0
    4.7046    0.0237   14.8285 C   0  0  2  0  0  0  0  0  0  0  0  0
  1 15  1  0
  1 20  1  0
  2 13  1  0
  4  9  1  0
  6 14  2  0
  7  3  1  0
  8 20  1  0
  8 10  1  0
  8  7  1  0
  9 15  1  0
 10  7  1  0
 11 14  1  0
 11 18  1  0
 12  4  2  0
 13  3  2  0
 14  2  1  0
 16 20  1  0
 16  5  1  0
 18 19  1  0
 18 10  1  0
 20 17  1  1
M  RAD  8   1   3   3   2   4   2   5   2   7   2   8   2   9   3  10   2
M  RAD  7  12   3  13   2  15   3  16   3  17   2  18   2  19   2
M  END
$$$$

     RDKit          3D

 15 16  0  0  0  0  0  0  0  0999 V2000
    2.1207   -2.1587   14.5186 O   0  0  0  0  0  0  0  0  0  0  0  0
    6.9073   -3.9547   15.2705 C   0  0  0  0  0  3  0  0  0  0  0  0
    8.9562   -0.0436   16.9992 C   0  0  0  0  0  1  0  0  0  0  0  0
    7.3100   -1.5812   15.7126 N   0  0  0  0  0  0  0  0  0  0  0  0
    7.9250   -2.9011   15.6084 C   0  0  0  0  0  2  0  0  0  0  0  0
    4.7182   -5.0112   15.3741 C   0  0  0  0  0  1  0  0  0  0  0  0
    5.6306   -3.8661   15.6680 C   0  0  0  0  0  0  0  0  0  0  0  0
    5.1308   -2.6675   16.4565 C   0  0  0  0  0  3  0  0  0  0  0  0
    2.5543   -0.8478   14.7829 C   0  0  0  0  0  3  0  0  0  0  0  0
    5.5634   -0.3087   16.6080 O   0  0  0  0  0  0  0  0  0  0  0  0
    2.7146   -0.1665   13.5776 O   0  0  0  0  0  1  0  0  0  0  0  0
    8.2813   -0.1571   15.3172 S   0  0  0  0  0  0  0  0  0  0  0  0
    5.9911   -1.4423   16.2595 C   0  0  0  0  0  0  0  0  0  0  0  0
    3.4826   -1.9969   14.8292 C   0  0  0  0  0  3  0  0  0  0  0  0
    3.7079   -2.3895   16.2177 N   0  0  0  0  0  2  0  0  0  0  0  0
  1  9  1  0
  1 14  1  0
  2  7  2  0
  4  5  1  0
  5  2  1  0
  7  8  1  0
  7  6  1  0
  8 15  1  0
  9 11  1  0
  9 14  1  0
 10 13  2  0
 12  3  1  0
 12  4  1  0
 13  4  1  0
 13  8  1  0
 14 15  1  0
M  RAD  8   2   2   3   2   5   3   6   2   8   2   9   2  11   2  14   2
M  RAD  1  15   2
M  END
$$$$
/tmp/tmpy0bhr4gb
     RDKit          3D

 20 21  0  0  1  0  0  0  0  0999 V2000
    7.6536   -4.3833   13.7801 N   0  0  0  0  0  0  0  0  0  0  0  0
    9.4691   -5.6593   14.7341 C   0  0  0  0  0  0  0  0  0  0  0  0
    7.1503   -2.2011   14.9229 C   0  0  0  0  0  3  0  0  0  0  0  0
    5.1526   -1.0434   15.3351 C   0  0  0  0  0  3  0  0  0  0  0  0
    0.6090    0.4201   14.3415 C   0  0  0  0  0  2  0  0  0  0  0  0
   -0.9624   -0.2486   11.7354 C   0  0  0  0  0  1  0  0  0  0  0  0
    9.4427   -3.2515   15.1198 C   0  0  0  0  0  3  0  0  0  0  0  0
    2.0020    0.5184   14.1014 O   0  0  0  0  0  0  0  0  0  0  0  0
   10.1980   -6.6075   14.5799 C   0  0  0  0  0  3  0  0  0  0  0  0
    9.0794   -2.6099   16.4444 C   0  0  0  0  0  2  0  0  0  0  0  0
    4.1893   -0.1913   14.5838 C   0  0  0  0  0  3  0  0  0  0  0  0
    6.9870   -3.0732   13.6770 C   0  0  0  0  0  2  0  0  0  0  0  0
    2.8868   -0.2825   14.8099 C   0  0  0  0  0  3  0  0  0  0  0  0
    8.5793   -4.5051   14.9232 C   0  0  0  0  0  3  0  0  0  0  0  0
    5.2178   -0.6098   16.7217 N   0  0  0  0  0  1  0  0  0  0  0  0
   -0.1431    1.3826   13.4366 C   0  0  0  0  0  2  0  0  0  0  0  0
    8.6334   -1.9514   15.1563 C   0  0  0  0  0  3  0  0  0  0  0  0
   -0.0607    0.9462   11.9824 C   0  0  0  0  0  2  0  0  0  0  0  0
    6.5896   -5.3582   13.9695 C   0  0  0  0  0  1  0  0  0  0  0  0
    6.4692   -0.9314   14.7278 N   0  0  0  0  0  2  0  0  0  0  0  0
  1 19  1  0
  3 20  1  0
  4 15  1  0
  6 18  1  0
  7 10  1  0
  7 17  1  0
  8  5  1  0
  8 13  1  0
  9  2  3  0
 11  4  1  0
 12  1  1  0
 12  3  1  0
 13 11  2  0
 14  2  1  0
 14  7  1  0
 14  1  1  0
 16  5  1  0
 17 10  1  0
 17  3  1  0
 18 16  1  0
 20  4  1  0
M  RAD  8   3   2   4   2   5   3   6   2   7   2   9   2  10   3  11   2
M  RAD  8  12   3  13   2  14   2  15   3  16   3  17   2  18   3  19   2
M  RAD  1  20   2
M  END
$$$$

     RDKit          3D

 10 10  0  0  0  0  0  0  0  0999 V2000
    2.9342   -0.1476   13.8408 C   0  0  0  0  0  3  0  0  0  0  0  0
    3.7160   -0.1340   12.6154 N   0  0  0  0  0  2  0  0  0  0  0  0
    2.4445   -2.0822   15.4590 C   0  0  0  0  0  2  0  0  0  0  0  0
    4.4006   -2.9821   16.4158 O   0  0  0  0  0  0  0  0  0  0  0  0
    5.3138   -0.3401   16.7384 O   0  0  0  0  0  1  0  0  0  0  0  0
    2.8849    0.4633   11.5845 C   0  0  0  0  0  1  0  0  0  0  0  0
    2.3000   -1.5394   14.0380 C   0  0  0  0  0  2  0  0  0  0  0  0
    3.8854   -2.0238   15.8631 C   0  0  0  0  0  0  0  0  0  0  0  0
    4.6946   -0.7894   15.5718 C   0  0  0  0  0  3  0  0  0  0  0  0
    3.8020    0.3233   15.0182 C   0  0  0  0  0  2  0  0  0  0  0  0
  1  2  1  0
  1  7  1  0
  1 10  1  0
  3  8  1  0
  6  2  1  0
  7  3  1  0
  8  9  1  0
  8  4  2  0
  9  5  1  0
 10  9  1  0
M  RAD  8   1   2   2   2   3   3   5   2   6   2   7   3   9   2  10   3
M  END
$$$$

     RDKit          3D

 17 17  0  0  0  0  0  0  0  0999 V2000
    6.5362    0.8104   14.7040 N   0  0  0  0  0  0  0  0  0  0  0  0
    0.3116   -1.3629   12.6454 C   0  0  0  0  0  2  0  0  0  0  0  0
    6.0782   -2.4883   12.9545 N   0  0  0  0  0  2  0  0  0  0  0  0
    4.4016   -1.1544   14.1266 O   0  0  0  0  0  0  0  0  0  0  0  0
    4.9506   -1.6123   12.9323 C   0  0  0  0  0  0  0  0  0  0  0  0
   -1.0494   -0.9783   13.1944 C   0  0  0  0  0  1  0  0  0  0  0  0
    4.1788    0.2280   14.3482 C   0  0  0  0  0  3  0  0  0  0  0  0
    8.6861    0.0313   13.9877 C   0  0  0  0  0  1  0  0  0  0  0  0
    7.0108   -1.5547   15.1549 C   0  0  0  0  0  2  0  0  0  0  0  0
    2.8010    0.4367   14.9559 C   0  0  0  0  0  2  0  0  0  0  0  0
    7.3506   -0.1882   14.6154 C   0  0  0  0  0  0  0  0  0  0  0  0
    7.9250   -3.5155   14.0415 C   0  0  0  0  0  2  0  0  0  0  0  0
    6.9835   -2.5848   14.0616 C   0  0  0  0  0  0  0  0  0  0  0  0
    4.4604   -1.2524   11.8297 O   0  0  0  0  0  0  0  0  0  0  0  0
    1.3792   -1.1988   13.7120 C   0  0  0  0  0  2  0  0  0  0  0  0
    1.7105    0.2712   13.9100 C   0  0  0  0  0  2  0  0  0  0  0  0
    5.2292    0.7452   15.3231 C   0  0  0  0  0  2  0  0  0  0  0  0
  1 17  1  0
  2  6  1  0
  2 15  1  0
  3 13  1  0
  4  7  1  0
  5  3  1  0
  5  4  1  0
  7 10  1  0
  7 17  1  0
  8 11  1  0
  9 13  1  0
  9 11  1  0
 11  1  2  0
 13 12  2  0
 14  5  2  0
 15 16  1  0
 16 10  1  0
M  RAD  8   2   3   3   2   6   2   7   2   8   2   9   3  10   3  12   3
M  RAD  3  15   3  16   3  17   3
M  END
$$$$

     RDKit          3D

 15 15  0  0  0  0  0  0  0  0999 V2000
    4.5393   -3.1020   12.6706 Cl  0  0  0  0  0  0  0  0  0  0  0  0
    6.1104   -1.2060   13.9268 C   0  0  0  0  0  0  0  0  0  0  0  0
    6.5335   -0.4835   15.0661 C   0  0  0  0  0  0  0  0  0  0  0  0
    5.9350   -0.7439   16.2996 C   0  0  0  0  0  3  0  0  0  0  0  0
    6.6365    0.3775   12.2084 O   0  0  0  0  0  1  0  0  0  0  0  0
    4.5304   -2.4004   15.3357 C   0  0  0  0  0  0  0  0  0  0  0  0
    5.0974   -2.1755   14.0683 C   0  0  0  0  0  0  0  0  0  0  0  0
    6.7115   -0.9698   12.5648 C   0  0  0  0  0  3  0  0  0  0  0  0
    8.1465   -1.4583   12.4939 C   0  0  0  0  0  1  0  0  0  0  0  0
    4.9600   -1.6809   16.4072 N   0  0  0  0  0  0  0  0  0  0  0  0
    2.1300   -2.7306   15.8435 C   0  0  0  0  0  1  0  0  0  0  0  0
    8.9303   -0.0308   15.4818 C   0  0  0  0  0  1  0  0  0  0  0  0
    3.4445   -3.4147   15.5210 C   0  0  0  0  0  3  0  0  0  0  0  0
    3.7809   -4.2979   16.5472 O   0  0  0  0  0  1  0  0  0  0  0  0
    7.6126    0.5507   15.0042 C   0  0  0  0  0  2  0  0  0  0  0  0
  1  7  1  0
  2  7  2  0
  2  3  1  0
  3  4  2  0
  4 10  1  0
  5  8  1  0
  6 13  1  0
  6 10  2  0
  7  6  1  0
  8  2  1  0
  8  9  1  0
 12 15  1  0
 13 11  1  0
 14 13  1  0
 15  3  1  0
M  RAD  8   4   2   5   2   8   2   9   2  11   2  12   2  13   2  14   2
M  RAD  1  15   3
M  END
$$$$
/tmp/tmp68f1ug9y
     RDKit          3D

 20 21  0  0  1  0  0  0  0  0999 V2000
    7.2080   -0.7363   13.1861 C   0  0  0  0  0  3  0  0  0  0  0  0
    4.0845   -5.0426   17.3096 C   0  0  0  0  0  2  0  0  0  0  0  0
    4.3754   -1.9523   15.1084 C   0  0  0  0  0  3  0  0  0  0  0  0
    5.0036    0.3225   12.4721 C   0  0  0  0  0  0  0  0  0  0  0  0
    4.4981   -3.6247   16.9745 C   0  0  0  0  0  3  0  0  0  0  0  0
    4.2292    2.5525   12.2591 O   0  0  0  0  0  0  0  0  0  0  0  0
    2.1166   -1.9106   13.6714 O   0  0  0  0  0  0  0  0  0  0  0  0
    6.1370   -1.1535   16.5591 O   0  0  0  0  0  1  0  0  0  0  0  0
    5.7239   -1.2130   15.2285 C   0  0  0  0  0  3  0  0  0  0  0  0
    3.8757   -0.0843   12.9711 N   0  0  0  0  0  0  0  0  0  0  0  0
    3.5964   -1.7063   13.5166 S   0  0  1  0  0  0  0  0  0  0  0  0
    6.8895   -1.6874   14.3405 C   0  0  0  0  0  3  0  0  0  0  0  0
    7.6164    0.5096   13.6676 O   0  0  0  0  0  1  0  0  0  0  0  0
    6.3034    2.1309   11.3883 O   0  0  0  0  0  1  0  0  0  0  0  0
    4.1154   -2.6871   12.5020 O   0  0  0  0  0  0  0  0  0  0  0  0
    6.7337   -2.9945   13.8740 O   0  0  0  0  0  1  0  0  0  0  0  0
    5.1468    1.7194   12.0385 C   0  0  0  0  0  0  0  0  0  0  0  0
    6.0836   -0.5936   12.2658 N   0  0  0  0  0  2  0  0  0  0  0  0
    4.4286   -3.4353   15.4705 C   0  0  0  0  0  2  0  0  0  0  0  0
    3.1081   -3.9003   17.5103 C   0  0  0  0  0  2  0  0  0  0  0  0
  1 13  1  0
  1 12  1  0
  2 20  1  0
  2  5  1  0
  3 19  1  0
  3  9  1  0
  4 18  1  0
  6 17  2  0
  7 11  2  0
  9 12  1  0
  9  8  1  0
 10  4  2  0
 11 10  1  0
 11 15  2  0
 11  3  1  1
 12 16  1  0
 17 14  1  0
 17  4  1  0
 18  1  1  0
 19  5  1  0
 20  5  1  0
M  RAD  8   1   2   2   3   3   2   5   2   8   2   9   2  12   2  13   2
M  RAD  5  14   2  16   2  18   2  19   3  20   3
M  END
$$$$
/tmp/tmpi1xo8ocl
     RDKit          3D

 20 19  0  0  1  0  0  0  0  0999 V2000
    4.3669   -0.2736   15.9621 O   0  0  0  0  0  1  0  0  0  0  0  0
    6.2385   -0.6147   14.4555 C   0  0  2  0  0  0  0  0  0  0  0  0
    2.9666   -4.6136   16.4623 C   0  0  0  0  0  2  0  0  0  0  0  0
    2.0843   -0.6279   12.9461 C   0  0  0  0  0  1  0  0  0  0  0  0
    4.7045   -0.4953   14.6225 C   0  0  0  0  0  3  0  0  0  0  0  0
    6.8209   -1.7343   15.3384 C   0  0  0  0  0  2  0  0  0  0  0  0
    5.0439   -3.3334   16.0500 C   0  0  0  0  0  2  0  0  0  0  0  0
    2.0675    1.7290   13.2284 O   0  0  0  0  0  1  0  0  0  0  0  0
    7.2670   -4.1864   15.3476 C   0  0  0  0  0  2  0  0  0  0  0  0
    4.1424   -4.4325   15.5229 C   0  0  0  0  0  2  0  0  0  0  0  0
    2.5784    0.5490   13.7658 C   0  0  0  0  0  3  0  0  0  0  0  0
    4.0981    0.6056   13.7502 C   0  0  0  0  0  2  0  0  0  0  0  0
    2.0499   -5.7087   15.9498 C   0  0  0  0  0  2  0  0  0  0  0  0
    2.6685   -6.9519   16.0863 O   0  0  0  0  0  1  0  0  0  0  0  0
    6.0666   -2.0057   12.3034 C   0  0  0  0  0  3  0  0  0  0  0  0
    6.8930    0.6767   14.9228 C   0  0  0  0  0  1  0  0  0  0  0  0
    6.2137   -3.1173   15.1058 C   0  0  0  0  0  3  0  0  0  0  0  0
    6.6554   -0.8050   12.9836 C   0  0  0  0  0  2  0  0  0  0  0  0
    8.2340   -4.1865   14.2635 N   0  0  0  0  0  1  0  0  0  0  0  0
    4.8867   -2.0325   11.9949 O   0  0  0  0  0  0  0  0  0  0  0  0
  2 16  1  1
  2  5  1  0
  2  6  1  0
  5  1  1  0
  8 11  1  0
 10  3  1  0
 10  7  1  0
 11  4  1  0
 12 11  1  0
 12  5  1  0
 13  3  1  0
 14 13  1  0
 15 18  1  0
 17  6  1  0
 17  9  1  0
 17  7  1  0
 18  2  1  0
 19  9  1  0
 20 15  2  0
M  RAD  8   1   2   3   3   4   2   5   2   6   3   7   3   8   2   9   3
M  RAD  8  10   3  11   2  12   3  13   3  14   2  15   2  16   2  17   2
M  RAD  2  18   3  19   3
M  END
$$$$
/tmp/tmp3h5t96bu
     RDKit          3D

 20 21  0  0  1  0  0  0  0  0999 V2000
    6.1522    0.6914   14.5887 C   0  0  0  0  0  3  0  0  0  0  0  0
    4.4719    1.1924   12.8008 C   0  0  0  0  0  1  0  0  0  0  0  0
    4.8786   -2.5611   17.5373 O   0  0  0  0  0  0  0  0  0  0  0  0
    4.8547   -2.8743   13.1368 C   0  0  0  0  0  2  0  0  0  0  0  0
    3.1477   -0.0184   14.8725 O   0  0  0  0  0  1  0  0  0  0  0  0
    4.2460   -0.7724   14.4283 C   0  0  1  0  0  0  0  0  0  0  0  0
    1.5970   -5.4824   14.5810 C   0  0  0  0  0  1  0  0  0  0  0  0
    6.0166   -0.1714   15.8479 C   0  0  0  0  0  3  0  0  0  0  0  0
    4.2759   -4.1301   12.5107 C   0  0  0  0  0  2  0  0  0  0  0  0
    4.2841   -6.2221   13.3452 O   0  0  0  0  0  1  0  0  0  0  0  0
    4.2742   -1.5610   16.7611 C   0  0  2  0  0  0  0  0  0  0  0  0
    5.0616   -1.2417   15.5620 N   0  0  0  0  0  0  0  0  0  0  0  0
    3.7322   -1.9567   13.6078 C   0  0  0  0  0  2  0  0  0  0  0  0
    3.7400   -4.9986   13.5455 N   0  0  0  0  0  0  0  0  0  0  0  0
    2.3143   -5.1248   13.2942 C   0  0  0  0  0  2  0  0  0  0  0  0
    5.1787    0.1023   13.5948 C   0  0  0  0  0  3  0  0  0  0  0  0
    3.7727   -0.5191   17.5467 O   0  0  0  0  0  1  0  0  0  0  0  0
    7.2405   -0.7223   16.2385 O   0  0  0  0  0  1  0  0  0  0  0  0
    3.6724   -2.9004   16.8821 C   0  0  0  0  0  2  0  0  0  0  0  0
    7.4449    0.6445   14.0588 O   0  0  0  0  0  1  0  0  0  0  0  0
  1 20  1  0
  1 16  1  0
  1  8  1  0
  6 12  1  0
  6 13  1  0
  6  5  1  1
  8 18  1  0
  8 12  1  0
  9 14  1  0
  9  4  1  0
 10 14  1  0
 11  3  1  0
 11 17  1  1
 12 11  1  0
 13  4  1  0
 14 15  1  0
 15  7  1  0
 16  2  1  0
 16  6  1  0
 19 11  1  0
 19  3  1  0
M  RAD  8   1   2   2   2   4   3   5   2   7   2   8   2   9   3  10   2
M  RAD  7  13   3  15   3  16   2  17   2  18   2  19   3  20   2
M  END
$$$$
/tmp/tmpg4p0qkad
     RDKit          3D

 20 19  0  0  1  0  0  0  0  0999 V2000
    7.2519   -0.5093   15.1186 C   0  0  0  0  0  0  0  0  0  0  0  0
    2.5818   -4.0516   16.0820 C   0  0  0  0  0  2  0  0  0  0  0  0
    1.6603   -4.8259   15.1595 C   0  0  0  0  0  2  0  0  0  0  0  0
    4.8097   -2.9451   16.2367 C   0  0  0  0  0  2  0  0  0  0  0  0
    8.5453   -0.2924   14.8290 C   0  0  0  0  0  2  0  0  0  0  0  0
    7.3117    1.8471   14.3689 N   0  0  0  0  0  1  0  0  0  0  0  0
    6.3544   -1.2296   14.1637 C   0  0  0  0  0  3  0  0  0  0  0  0
    4.3951   -1.5176   15.8862 C   0  0  0  0  0  3  0  0  0  0  0  0
    3.9822   -1.5555   13.3760 C   0  0  0  0  0  2  0  0  0  0  0  0
    0.2672   -4.8593   15.7506 C   0  0  0  0  0  1  0  0  0  0  0  0
    3.9784   -3.9734   15.4867 C   0  0  0  0  0  3  0  0  0  0  0  0
    4.8679   -1.0277   14.5002 C   0  0  0  0  0  3  0  0  0  0  0  0
    6.6923   -2.5839   14.0987 O   0  0  0  0  0  1  0  0  0  0  0  0
    8.1318    0.6253   14.6330 C   0  0  0  0  0  2  0  0  0  0  0  0
    2.5639    0.4134   13.0024 C   0  0  0  0  0  2  0  0  0  0  0  0
    0.3940   -1.9185   12.3269 Cl  0  0  0  0  0  0  0  0  0  0  0  0
    1.4281   -1.6265   13.7480 C   0  0  0  0  0  2  0  0  0  0  0  0
    4.6258   -5.2701   15.5828 N   0  0  0  0  0  1  0  0  0  0  0  0
    4.8416   -0.6063   16.9249 N   0  0  0  0  0  1  0  0  0  0  0  0
    2.6536   -0.8673   13.3602 C   0  0  0  0  0  0  0  0  0  0  0  0
  1 14  1  0
  1  5  2  0
  2 11  1  0
  3 10  1  0
  3  2  1  0
  6 14  1  0
  7 13  1  0
  7 12  1  0
  7  1  1  0
  8  4  1  0
  8 19  1  0
 11 18  1  0
 11  4  1  0
 12  9  1  0
 12  8  1  0
 15 20  2  0
 16 17  1  0
 17 20  1  0
 20  9  1  0
M  RAD  8   2   3   3   3   4   3   5   3   6   3   7   2   8   2   9   3
M  RAD  8  10   2  11   2  12   2  13   2  14   3  15   3  17   3  18   3
M  RAD  1  19   3
M  END
$$$$
/tmp/tmpdmqvdl_x
     RDKit          3D

 20 20  0  0  1  0  0  0  0  0999 V2000
    5.5978   -0.0971   13.9889 C   0  0  0  0  0  3  0  0  0  0  0  0
    5.4248   -0.4633   12.5097 C   0  0  0  0  0  2  0  0  0  0  0  0
    5.5465   -2.0056   17.3970 C   0  0  0  0  0  3  0  0  0  0  0  0
    4.9468    0.2627   16.8341 O   0  0  0  0  0  1  0  0  0  0  0  0
    4.1293   -2.5979   17.3831 C   0  0  0  0  0  3  0  0  0  0  0  0
    6.1711   -1.8927   10.5862 C   0  0  0  0  0  2  0  0  0  0  0  0
    3.2122   -1.7186   17.9658 O   0  0  0  0  0  1  0  0  0  0  0  0
    3.7503   -1.8017   10.1112 C   0  0  0  0  0  2  0  0  0  0  0  0
    3.8471   -1.7579   15.0093 C   0  0  0  0  0  3  0  0  0  0  0  0
    3.2513   -2.0784   13.6437 C   0  0  0  0  0  1  0  0  0  0  0  0
    5.9045   -1.6189   18.6901 O   0  0  0  0  0  1  0  0  0  0  0  0
    4.8720   -2.5169   10.1760 C   0  0  0  0  0  3  0  0  0  0  0  0
    4.4311   -4.2045   15.4921 C   0  0  0  0  0  2  0  0  0  0  0  0
    6.9576    0.5819   14.2041 C   0  0  0  0  0  2  0  0  0  0  0  0
    5.3169   -1.2553   14.9875 C   0  0  0  0  0  3  0  0  0  0  0  0
    8.0029   -0.3370   14.1120 O   0  0  0  0  0  1  0  0  0  0  0  0
    6.2465   -1.6792   12.0950 C   0  0  0  0  0  2  0  0  0  0  0  0
    5.7065   -0.8365   16.4197 C   0  0  0  0  0  3  0  0  0  0  0  0
    3.6773   -4.8879   14.5422 O   0  0  0  0  0  1  0  0  0  0  0  0
    3.6805   -2.9592   15.9643 C   0  0  0  0  0  3  0  0  0  0  0  0
  1  2  1  0
  3 18  1  0
  3 11  1  0
  3  5  1  0
  5  7  1  0
  6 17  1  0
  9 10  1  0
 12  8  2  0
 12  6  1  0
 13 19  1  0
 14  1  1  0
 15  1  1  0
 15  9  1  0
 16 14  1  0
 17  2  1  0
 18 15  1  0
 18  4  1  0
 20 13  1  0
 20  5  1  0
 20  9  1  0
M  RAD  8   1   2   2   3   3   2   4   2   5   2   6   3   7   2   8   3
M  RAD  8   9   2  10   2  11   2  12   2  13   3  14   3  15   2  16   2
M  RAD  4  17   3  18   2  19   2  20   2
M  END
$$$$
/tmp/tmp59qsd8og
     RDKit          3D

 20 21  0  0  1  0  0  0  0  0999 V2000
    6.8721   -2.9734   15.8674 C   0  0  0  0  0  3  0  0  0  0  0  0
    2.1804   -0.3507   13.7186 C   0  0  0  0  0  3  0  0  0  0  0  0
    6.5804   -2.1157   13.4838 C   0  0  0  0  0  3  0  0  0  0  0  0
    8.5494   -4.1644   17.1692 C   0  0  0  0  0  1  0  0  0  0  0  0
    3.7911   -2.2349   15.8666 C   0  0  0  0  0  1  0  0  0  0  0  0
    4.8532   -1.7191   14.9086 C   0  0  1  0  0  0  0  0  0  0  0  0
    7.2848   -0.8083   13.9218 C   0  0  0  0  0  2  0  0  0  0  0  0
    2.2980    0.1058   15.0309 O   0  0  0  0  0  1  0  0  0  0  0  0
    5.4574   -0.3452   15.3295 C   0  0  0  0  0  3  0  0  0  0  0  0
    7.7671   -5.0856   14.9004 C   0  0  0  0  0  2  0  0  0  0  0  0
    3.4347   -0.3672   11.6632 O   0  0  0  0  0  1  0  0  0  0  0  0
    6.3637    0.1800   14.3650 O   0  0  0  0  0  0  0  0  0  0  0  0
    5.5071   -1.7898   12.6231 O   0  0  0  0  0  0  0  0  0  0  0  0
    8.6736   -4.6568   13.7619 C   0  0  0  0  0  1  0  0  0  0  0  0
    6.0407   -0.3722   16.5999 O   0  0  0  0  0  1  0  0  0  0  0  0
    1.2289    0.5766   12.9795 C   0  0  0  0  0  1  0  0  0  0  0  0
    5.9401   -2.7346   14.7021 C   0  0  0  0  0  3  0  0  0  0  0  0
    4.3626   -1.6515   13.4550 C   0  0  0  0  0  3  0  0  0  0  0  0
    7.7045   -4.0192   15.9513 C   0  0  0  0  0  0  0  0  0  0  0  0
    3.5642   -0.3940   13.0562 C   0  0  0  0  0  3  0  0  0  0  0  0
  1 19  2  0
  2 16  1  0
  2  8  1  0
  3  7  1  0
  3 17  1  0
  6  9  1  0
  6  5  1  1
  7 12  1  0
  9 15  1  0
 10 19  1  0
 12  9  1  0
 13 18  1  0
 13  3  1  0
 14 10  1  0
 17  6  1  0
 17  1  1  0
 18 20  1  0
 18  6  1  0
 19  4  1  0
 20 11  1  0
 20  2  1  0
M  RAD  8   1   2   2   2   3   2   4   2   5   2   7   3   8   2   9   2
M  RAD  8  10   3  11   2  14   2  15   2  16   2  17   2  18   2  20   2
M  END
$$$$

     RDKit          3D

 12 12  0  0  0  0  0  0  0  0999 V2000
    7.5698    1.5794   13.4838 C   0  0  0  0  0  1  0  0  0  0  0  0
    1.9029   -1.1272   14.5915 C   0  0  0  0  0  2  0  0  0  0  0  0
    4.7615   -2.2593   12.9001 C   0  0  0  0  0  0  0  0  0  0  0  0
    5.1174   -0.9195   12.6875 C   0  0  0  0  0  3  0  0  0  0  0  0
   -0.1438   -0.5912   13.3076 C   0  0  0  0  0  1  0  0  0  0  0  0
    4.2171   -1.2056   13.7242 C   0  0  0  0  0  0  0  0  0  0  0  0
    6.7034    0.5297   14.1534 C   0  0  0  0  0  2  0  0  0  0  0  0
    3.3529   -0.7583   14.8525 C   0  0  0  0  0  2  0  0  0  0  0  0
    6.4881   -0.6325   13.2343 C   0  0  0  0  0  0  0  0  0  0  0  0
    7.4409   -1.3215   12.8987 O   0  0  0  0  0  0  0  0  0  0  0  0
    1.2955   -0.1954   13.5594 C   0  0  0  0  0  2  0  0  0  0  0  0
    4.8653   -3.6043   12.5730 O   0  0  0  0  0  1  0  0  0  0  0  0
  1  7  1  0
  2  8  1  0
  3  4  1  0
  3  6  2  0
  4  9  1  0
  4  6  1  0
  5 11  1  0
  6  8  1  0
  7  9  1  0
 10  9  2  0
 11  2  1  0
 12  3  1  0
M  RAD  8   1   2   2   3   4   2   5   2   7   3   8   3  11   3  12   2
M  END
$$$$

     RDKit          3D

 12 12  0  0  0  0  0  0  0  0999 V2000
    2.1509   -4.4018   14.6249 C   0  0  0  0  0  3  0  0  0  0  0  0
    5.9476    0.1041   13.7570 O   0  0  0  0  0  1  0  0  0  0  0  0
    4.8997    1.0018   16.1505 O   0  0  0  0  0  0  0  0  0  0  0  0
    4.9597   -0.6213   14.4198 C   0  0  0  0  0  0  0  0  0  0  0  0
    4.4518   -0.0795   15.6867 C   0  0  0  0  0  3  0  0  0  0  0  0
    2.8281   -2.4468   15.6281 C   0  0  0  0  0  3  0  0  0  0  0  0
    4.5101   -1.7770   13.8816 C   0  0  0  0  0  0  0  0  0  0  0  0
    5.1115   -2.2412   12.5906 C   0  0  0  0  0  2  0  0  0  0  0  0
    3.4718   -2.6570   14.4886 C   0  0  0  0  0  0  0  0  0  0  0  0
    1.8843   -3.5805   15.8408 C   0  0  0  0  0  2  0  0  0  0  0  0
    6.1812   -3.0985   12.8492 O   0  0  0  0  0  1  0  0  0  0  0  0
    3.0503   -3.8653   13.8723 N   0  0  0  0  0  0  0  0  0  0  0  0
  1 10  1  0
  2  4  1  0
  4  5  1  0
  5  3  2  0
  6 10  1  0
  7  4  2  0
  7  9  1  0
  8  7  1  0
  9  6  2  0
 11  8  1  0
 12  9  1  0
 12  1  2  0
M  RAD  7   1   2   2   2   5   2   6   2   8   3  10   3  11   2
M  END
$$$$
/tmp/tmpw37tbldr
     RDKit          3D

 20 21  0  0  1  0  0  0  0  0999 V2000
    8.0043   -5.0512   14.7730 N   0  0  0  0  0  2  0  0  0  0  0  0
    3.6446   -3.6882   15.9035 C   0  0  0  0  0  2  0  0  0  0  0  0
    2.7536   -0.2548   14.6094 N   0  0  0  0  0  2  0  0  0  0  0  0
    7.5226   -0.6000   14.7431 C   0  0  0  0  0  3  0  0  0  0  0  0
    0.9943    0.5063   13.1382 C   0  0  0  0  0  3  0  0  0  0  0  0
    2.1116   -0.4985   13.3296 C   0  0  0  0  0  3  0  0  0  0  0  0
    8.9966   -3.2561   15.9511 C   0  0  0  0  0  2  0  0  0  0  0  0
    7.6632   -2.8520   15.3800 C   0  0  0  0  0  3  0  0  0  0  0  0
    7.0109   -4.0628   14.8982 N   0  0  0  0  0  2  0  0  0  0  0  0
    5.9149   -0.1000   14.0578 S   0  0  0  0  0  0  0  0  0  0  0  0
    7.8628   -1.9328   14.2707 N   0  0  0  0  0  2  0  0  0  0  0  0
    3.3213   -4.4775   14.6490 C   0  0  0  0  0  1  0  0  0  0  0  0
    4.9872   -0.9289   15.3839 C   0  0  0  0  0  3  0  0  0  0  0  0
    8.5837    0.3783   14.2853 C   0  0  0  0  0  1  0  0  0  0  0  0
    4.8482   -0.0362   16.5247 N   0  0  0  0  0  1  0  0  0  0  0  0
    2.9542   -2.3331   15.8718 C   0  0  0  0  0  2  0  0  0  0  0  0
   -0.1908   -0.1630   11.9965 S   0  0  0  0  0  1  0  0  0  0  0  0
    3.6226   -1.3926   14.8743 C   0  0  0  0  0  3  0  0  0  0  0  0
    9.0235   -4.7440   15.7609 C   0  0  0  0  0  2  0  0  0  0  0  0
    2.3167    0.7012   12.4291 C   0  0  0  0  0  2  0  0  0  0  0  0
  1 19  1  0
  2 16  1  0
  3 18  1  0
  4 14  1  0
  4 10  1  0
  4 11  1  0
  5 17  1  0
  5 20  1  0
  5  6  1  0
  6  3  1  0
  7 19  1  0
  8 11  1  0
  8  7  1  0
  9  1  1  0
  9  8  1  0
 10 13  1  0
 12  2  1  0
 13 15  1  0
 18 13  1  0
 18 16  1  0
 20  6  1  0
M  RAD  8   1   2   2   3   3   2   4   2   5   2   6   2   7   3   8   2
M  RAD  8   9   2  11   2  12   2  13   2  14   2  15   3  16   3  17   2
M  RAD  3  18   2  19   3  20   3
M  END
$$$$

     RDKit          3D

 17 17  0  0  0  0  0  0  0  0999 V2000
    4.7556    0.1083   12.7459 N   0  0  0  0  0  0  0  0  0  0  0  0
    0.5000   -1.0032   13.5580 C   0  0  0  0  0  1  0  0  0  0  0  0
    5.8778    0.5626   11.9263 C   0  0  0  0  0  2  0  0  0  0  0  0
    6.7225   -1.5460   15.0533 C   0  0  0  0  0  2  0  0  0  0  0  0
    5.5566    1.1488   15.9666 O   0  0  0  0  0  0  0  0  0  0  0  0
    5.1167    0.3383   15.1658 C   0  0  0  0  0  0  0  0  0  0  0  0
    7.2588    0.3278   12.5579 C   0  0  0  0  0  3  0  0  0  0  0  0
    4.0874   -1.0993   12.3478 C   0  0  0  0  0  3  0  0  0  0  0  0
    4.3783    0.8360   13.9593 C   0  0  0  0  0  2  0  0  0  0  0  0
    1.7406   -0.4284   12.9765 C   0  0  0  0  0  0  0  0  0  0  0  0
    5.3041   -1.1301   15.4078 C   0  0  0  0  0  3  0  0  0  0  0  0
    1.7115    0.8320   12.5610 C   0  0  0  0  0  2  0  0  0  0  0  0
    6.7635   -1.9874   13.6000 C   0  0  0  0  0  2  0  0  0  0  0  0
    2.7825   -1.3586   12.5112 C   0  0  0  0  0  3  0  0  0  0  0  0
    5.0382   -1.4368   16.7429 O   0  0  0  0  0  1  0  0  0  0  0  0
    7.4673    1.0988   13.7006 O   0  0  0  0  0  1  0  0  0  0  0  0
    7.6956   -1.1298   12.7491 C   0  0  0  0  0  2  0  0  0  0  0  0
  1  8  1  0
  1  9  1  0
  2 10  1  0
  3  7  1  0
  3  1  1  0
  4 11  1  0
  6  5  2  0
  7 16  1  0
  9  6  1  0
 10 14  1  0
 11  6  1  0
 11 15  1  0
 12 10  2  0
 13  4  1  0
 14  8  2  0
 17  7  1  0
 17 13  1  0
M  RAD  8   2   2   3   3   4   3   7   2   8   2   9   3  11   2  12   3
M  RAD  5  13   3  14   2  15   2  16   2  17   3
M  END
$$$$

     RDKit          3D

 14 15  0  0  0  0  0  0  0  0999 V2000
    3.5526   -1.4399   13.6040 C   0  0  0  0  0  3  0  0  0  0  0  0
    1.9763    0.5965   13.4320 C   0  0  0  0  0  1  0  0  0  0  0  0
    4.6216    0.1115   15.9657 C   0  0  0  0  0  0  0  0  0  0  0  0
    3.3268    0.0646   13.8880 C   0  0  0  0  0  3  0  0  0  0  0  0
    5.2046   -0.6729   11.7768 C   0  0  0  0  0  2  0  0  0  0  0  0
    6.1511   -0.1327   13.9900 C   0  0  0  0  0  0  0  0  0  0  0  0
    2.3317   -2.1376   13.2224 N   0  0  0  0  0  2  0  0  0  0  0  0
    6.5166    1.0406   13.7106 O   0  0  0  0  0  0  0  0  0  0  0  0
    4.7112   -1.8118   12.6456 C   0  0  0  0  0  3  0  0  0  0  0  0
    4.6437    0.3220   17.3719 N   0  0  0  0  0  1  0  0  0  0  0  0
    6.0898   -1.1752   12.9117 C   0  0  0  0  0  3  0  0  0  0  0  0
    3.5190    0.3406   15.3095 N   0  0  0  0  0  0  0  0  0  0  0  0
    2.3821   -3.3643   13.7934 O   0  0  0  0  0  1  0  0  0  0  0  0
    5.7771   -0.4544   15.3303 N   0  0  0  0  0  2  0  0  0  0  0  0
  1  7  1  0
  1  4  1  0
  3 10  1  0
  4  2  1  0
  4 12  1  0
  6  8  2  0
  6 14  1  0
  7 13  1  0
  9  5  1  0
  9 11  1  0
  9  1  1  0
 11  5  1  0
 11  6  1  0
 12  3  2  0
 14  3  1  0
M  RAD  8   1   2   2   2   4   2   5   3   7   2   9   2  10   3  11   2
M  RAD  2  13   2  14   2
M  END
$$$$

     RDKit          3D

 10 10  0  0  0  0  0  0  0  0999 V2000
    7.2517   -2.4946   14.4830 C   0  0  0  0  0  3  0  0  0  0  0  0
    7.4385   -0.0214   14.8676 C   0  0  0  0  0  2  0  0  0  0  0  0
    6.3334    0.9137   14.4178 C   0  0  0  0  0  2  0  0  0  0  0  0
    6.7842   -3.8068   15.0926 C   0  0  0  0  0  2  0  0  0  0  0  0
    5.2636   -1.0887   15.1991 C   0  0  0  0  0  3  0  0  0  0  0  0
    5.0702    0.4045   15.0729 C   0  0  0  0  0  2  0  0  0  0  0  0
    6.7655   -1.3086   15.3168 C   0  0  0  0  0  3  0  0  0  0  0  0
    6.8124   -2.3912   13.1591 O   0  0  0  0  0  1  0  0  0  0  0  0
    4.6216   -1.5533   16.3463 O   0  0  0  0  0  1  0  0  0  0  0  0
    7.5119   -4.9726   14.4518 C   0  0  0  0  0  1  0  0  0  0  0  0
  1  8  1  0
  1  4  1  0
  2  3  1  0
  2  7  1  0
  3  6  1  0
  5  9  1  0
  6  5  1  0
  7  1  1  0
  7  5  1  0
 10  4  1  0
M  RAD  8   1   2   2   3   3   3   4   3   5   2   6   3   7   2   8   2
M  RAD  2   9   2  10   2
M  END
$$$$

     RDKit          3D

 13 13  0  0  0  0  0  0  0  0999 V2000
    6.0836   -3.8269   16.6542 C   0  0  0  0  0  3  0  0  0  0  0  0
    8.3480   -4.2743   15.6910 C   0  0  0  0  0  3  0  0  0  0  0  0
    2.9658   -2.0698   14.9813 O   0  0  0  0  0  0  0  0  0  0  0  0
    6.1879   -0.9300   16.0369 O   0  0  0  0  0  0  0  0  0  0  0  0
    8.4102   -5.6561   15.0518 C   0  0  0  0  0  1  0  0  0  0  0  0
    8.9636   -3.1789   13.4842 C   0  0  0  0  0  1  0  0  0  0  0  0
    5.2831   -1.7138   15.6378 C   0  0  0  0  0  0  0  0  0  0  0  0
    5.6000   -3.1568   15.3869 C   0  0  0  0  0  3  0  0  0  0  0  0
    8.0126   -3.1772   14.6687 C   0  0  0  0  0  3  0  0  0  0  0  0
    3.6898   -0.0209   15.6241 O   0  0  0  0  0  0  0  0  0  0  0  0
    6.5648   -3.3109   14.2034 C   0  0  0  0  0  2  0  0  0  0  0  0
    7.3332   -4.2969   16.8038 C   0  0  0  0  0  3  0  0  0  0  0  0
    3.9573   -1.2226   15.4191 N   0  0  0  0  0  0  0  0  0  0  0  0
  1 12  2  0
  2  5  1  0
  2 12  1  0
  3 13  1  0
  4  7  2  0
  7 13  1  0
  8  7  1  0
  8  1  1  0
  9  6  1  0
  9  2  1  0
 11  8  1  0
 11  9  1  0
 13 10  2  0
M  RAD  8   1   2   2   2   5   2   6   2   8   2   9   2  11   3  12   2
M  CHG  2   3  -1  13   1
M  END
$$$$
/tmp/tmpnebz7i81
     RDKit          3D

 20 21  0  0  1  0  0  0  0  0999 V2000
    1.8422    0.7289   12.6161 C   0  0  0  0  0  1  0  0  0  0  0  0
    6.4687   -4.9720   15.9281 C   0  0  0  0  0  3  0  0  0  0  0  0
    6.5493    0.7086   16.3148 S   0  0  0  0  0  0  0  0  0  0  0  0
    6.5107   -5.8740   14.8626 C   0  0  0  0  0  3  0  0  0  0  0  0
    6.8829   -4.0418   13.3176 C   0  0  0  0  0  0  0  0  0  0  0  0
    3.7865    2.3694   13.0647 C   0  0  0  0  0  2  0  0  0  0  0  0
    7.0027   -1.6577   14.1740 C   0  0  0  0  0  2  0  0  0  0  0  0
    5.4323   -0.5020   11.8227 C   0  0  0  0  0  1  0  0  0  0  0  0
    4.9558    1.3687   16.4668 O   0  0  0  0  0  0  0  0  0  0  0  0
    1.5388    2.8352   13.6088 O   0  0  0  0  0  0  0  0  0  0  0  0
    4.5909    1.1745   15.1237 C   0  0  0  0  0  3  0  0  0  0  0  0
    7.1124   -3.5880   11.9158 C   0  0  0  0  0  1  0  0  0  0  0  0
    4.3855    2.5272   14.4555 C   0  0  0  0  0  2  0  0  0  0  0  0
    6.8387   -3.1300   14.3908 C   0  0  0  0  0  0  0  0  0  0  0  0
    2.3312    2.0344   13.1397 C   0  0  0  0  0  0  0  0  0  0  0  0
    5.8800    0.5460   14.6542 C   0  0  0  0  0  3  0  0  0  0  0  0
    5.6660   -0.9299   14.3147 C   0  0  0  0  0  3  0  0  0  0  0  0
    4.7989   -1.1126   13.0646 C   0  0  0  0  0  2  0  0  0  0  0  0
    6.7181   -5.4092   13.5613 C   0  0  0  0  0  3  0  0  0  0  0  0
    6.6325   -3.6046   15.6926 C   0  0  0  0  0  3  0  0  0  0  0  0
  2  4  2  0
  5 19  2  0
  6 15  1  0
  6 13  1  0
  7 14  1  0
  9  3  1  0
 10 15  2  0
 11 13  1  0
 11 16  1  0
 11  9  1  0
 12  5  1  0
 14  5  1  0
 14 20  2  0
 15  1  1  0
 16 17  1  0
 16  3  1  0
 17 18  1  0
 17  7  1  0
 18  8  1  0
 19  4  1  0
 20  2  1  0
M  RAD  8   1   2   2   2   4   2   6   3   7   3   8   2  11   2  12   2
M  RAD  6  13   3  16   2  17   2  18   3  19   2  20   2
M  END
$$$$

     RDKit          3D

 12 11  0  0  0  0  0  0  0  0999 V2000
    5.5388   -1.5891   14.3887 O   0  0  0  0  0  0  0  0  0  0  0  0
    3.4622   -1.7925   12.4604 O   0  0  0  0  0  1  0  0  0  0  0  0
    3.4103   -4.9675   15.8776 C   0  0  0  0  0  1  0  0  0  0  0  0
    4.2589   -3.7169   15.9986 C   0  0  0  0  0  2  0  0  0  0  0  0
    5.9789   -1.6375   11.7988 O   0  0  0  0  0  0  0  0  0  0  0  0
    5.0575   -2.2002   12.8561 P   0  0  1  0  0  0  0  0  0  0  0  0
    3.5043   -2.5132   15.4474 C   0  0  0  0  0  3  0  0  0  0  0  0
    4.4417   -1.3023   15.2444 C   0  0  1  0  0  0  0  0  0  0  0  0
    5.2041   -3.8848   12.8648 O   0  0  0  0  0  1  0  0  0  0  0  0
    4.9620   -0.9424   16.4898 O   0  0  0  0  0  1  0  0  0  0  0  0
    2.4523   -2.1835   16.3078 O   0  0  0  0  0  1  0  0  0  0  0  0
    3.6621   -0.0959   14.7287 C   0  0  0  0  0  1  0  0  0  0  0  0
  1  8  1  0
  6  2  1  6
  3  4  1  0
  5  6  2  0
  6  1  1  0
  7  4  1  0
  7 11  1  0
  8 12  1  6
  8  7  1  0
  8 10  1  0
  9  6  1  0
M  RAD  8   2   2   3   2   4   3   7   2   9   2  10   2  11   2  12   2
M  END
$$$$
/tmp/tmpc3f17skr
     RDKit          3D

 20 19  0  0  1  0  0  0  0  0999 V2000
    5.8371    0.6514   13.8010 C   0  0  0  0  0  3  0  0  0  0  0  0
    9.9444   -6.4542   16.2100 O   0  0  0  0  0  1  0  0  0  0  0  0
    5.3371   -1.5799   17.3009 C   0  0  0  0  0  1  0  0  0  0  0  0
    6.5892   -2.7070   15.6942 C   0  0  0  0  0  2  0  0  0  0  0  0
    9.2871   -4.2506   15.6651 C   0  0  0  0  0  0  0  0  0  0  0  0
    8.9086   -5.5284   16.3353 C   0  0  0  0  0  2  0  0  0  0  0  0
    7.7913   -2.4609   14.7974 C   0  0  0  0  0  2  0  0  0  0  0  0
    5.7248    2.1462   13.5650 C   0  0  0  0  0  1  0  0  0  0  0  0
    2.9508   -0.5501   12.8032 C   0  0  0  0  0  2  0  0  0  0  0  0
    4.8132   -1.3362   15.0405 C   0  0  0  0  0  2  0  0  0  0  0  0
    0.4690   -0.7540   12.8076 O   0  0  0  0  0  0  0  0  0  0  0  0
    6.1095   -0.1999   12.2558 S   0  0  0  0  0  1  0  0  0  0  0  0
   -0.8271   -0.4522   12.3138 C   0  0  0  0  0  1  0  0  0  0  0  0
    1.5436    0.5834   11.2590 O   0  0  0  0  0  0  0  0  0  0  0  0
    3.2643    0.3777   13.9682 C   0  0  0  0  0  2  0  0  0  0  0  0
    4.6373    0.1149   14.5997 C   0  0  0  0  0  3  0  0  0  0  0  0
    1.6194   -0.2115   12.2345 C   0  0  0  0  0  0  0  0  0  0  0  0
   10.2389   -3.6037   16.0734 O   0  0  0  0  0  0  0  0  0  0  0  0
    5.9206   -1.4490   15.9776 N   0  0  0  0  0  0  0  0  0  0  0  0
    8.4999   -3.7701   14.4878 C   0  0  0  0  0  2  0  0  0  0  0  0
  1  8  1  0
  1 16  1  0
  5  6  1  0
  5 18  2  0
  6  2  1  0
  7  4  1  0
  9 15  1  0
 10 19  1  0
 12  1  1  0
 13 11  1  0
 14 17  2  0
 16 15  1  0
 16 10  1  0
 17 11  1  0
 17  9  1  0
 19  4  1  0
 19  3  1  0
 20  7  1  0
 20  5  1  0
M  RAD  8   1   2   2   2   3   2   4   3   6   3   7   3   8   2   9   3
M  RAD  6  10   3  12   2  13   2  15   3  16   2  20   3
M  END
$$$$

     RDKit          3D

 11 11  0  0  0  0  0  0  0  0999 V2000
    5.2256   -2.4711   12.1800 N   0  0  0  0  0  2  0  0  0  0  0  0
    5.3571   -0.4169   13.3183 C   0  0  0  0  0  0  0  0  0  0  0  0
    6.1703   -1.4930   12.7085 C   0  0  0  0  0  2  0  0  0  0  0  0
    7.3153    0.9769   13.9380 C   0  0  0  0  0  1  0  0  0  0  0  0
    3.1985    0.1860   12.3096 C   0  0  0  0  0  2  0  0  0  0  0  0
    3.9126   -2.1646   12.7554 C   0  0  0  0  0  2  0  0  0  0  0  0
    1.6896    0.0377   12.4247 C   0  0  0  0  0  3  0  0  0  0  0  0
    1.1912    0.7146   13.6875 C   0  0  0  0  0  1  0  0  0  0  0  0
    3.9199   -0.7388   13.2842 C   0  0  0  0  0  3  0  0  0  0  0  0
    5.8503    0.6884   13.8881 C   0  0  0  0  0  3  0  0  0  0  0  0
    1.0825    0.6279   11.3177 O   0  0  0  0  0  1  0  0  0  0  0  0
  1  3  1  0
  1  6  1  0
  2 10  2  0
  3  2  1  0
  6  9  1  0
  7  5  1  0
  7  8  1  0
  9  5  1  0
  9  2  1  0
 10  4  1  0
 11  7  1  0
M  RAD  8   1   2   3   3   4   2   5   3   6   3   7   2   8   2   9   2
M  RAD  2  10   2  11   2
M  END
$$$$

     RDKit          3D

  8  7  0  0  0  0  0  0  0  0999 V2000
    7.2711   -3.3058   13.8949 C   0  0  0  0  0  1  0  0  0  0  0  0
    4.8442    0.4042   14.9226 O   0  0  0  0  0  1  0  0  0  0  0  0
    5.1660   -0.0911   16.1864 C   0  0  0  0  0  2  0  0  0  0  0  0
    7.5350   -2.7875   15.2984 C   0  0  0  0  0  3  0  0  0  0  0  0
    9.5581   -4.4678   15.9627 S   0  0  0  0  0  1  0  0  0  0  0  0
    5.7481   -1.4861   16.0613 C   0  0  0  0  0  2  0  0  0  0  0  0
    7.0465   -1.4240   15.4098 N   0  0  0  0  0  2  0  0  0  0  0  0
    9.0251   -2.8108   15.5879 C   0  0  0  0  0  2  0  0  0  0  0  0
  2  3  1  0
  3  6  1  0
  4  1  1  0
  4  8  1  0
  4  7  1  0
  7  6  1  0
  8  5  1  0
M  RAD  8   1   2   2   2   3   3   4   2   5   2   6   3   7   2   8   3
M  END
$$$$

     RDKit          3D

 12 13  0  0  0  0  0  0  0  0999 V2000
    1.0695    0.3167   12.0585 N   0  0  0  0  0  0  0  0  0  0  0  0
    2.1190    0.8118   11.4800 C   0  0  0  0  0  3  0  0  0  0  0  0
    5.4294    0.9797   16.3015 O   0  0  0  0  0  1  0  0  0  0  0  0
    3.2839    0.5931   12.3126 C   0  0  0  0  0  0  0  0  0  0  0  0
    4.7123    0.9402   12.0315 C   0  0  0  0  0  2  0  0  0  0  0  0
    5.9241   -0.1180   15.5938 C   0  0  0  0  0  2  0  0  0  0  0  0
    1.4332   -0.2878   13.3403 C   0  0  0  0  0  2  0  0  0  0  0  0
    3.8014   -0.4367   14.4189 N   0  0  0  0  0  2  0  0  0  0  0  0
    5.2413   -0.2338   14.2351 C   0  0  0  0  0  3  0  0  0  0  0  0
    2.8999   -0.0706   13.3751 C   0  0  0  0  0  0  0  0  0  0  0  0
    5.5237    0.9941   13.3371 C   0  0  0  0  0  3  0  0  0  0  0  0
    6.9993    1.0803   12.9927 C   0  0  0  0  0  1  0  0  0  0  0  0
  1  7  1  0
  2  4  1  0
  2  1  2  0
  4 10  2  0
  5  4  1  0
  5 11  1  0
  6  3  1  0
  9  8  1  0
  9  6  1  0
 10  7  1  0
 10  8  1  0
 11 12  1  0
 11  9  1  0
M  RAD  8   2   2   3   2   5   3   6   3   7   3   8   2   9   2  11   2
M  RAD  1  12   2
M  END
$$$$
/tmp/tmpnkl7lpt_
     RDKit          3D

 20 22  0  0  1  0  0  0  0  0999 V2000
    8.5197   -4.3887   13.4754 O   0  0  0  0  0  0  0  0  0  0  0  0
    8.3682   -2.2684   14.5023 C   0  0  0  0  0  3  0  0  0  0  0  0
    7.2492   -1.3769   15.0160 C   0  0  0  0  0  2  0  0  0  0  0  0
    2.7579   -1.0897   14.4615 O   0  0  0  0  0  1  0  0  0  0  0  0
    3.6672   -3.0125   12.9028 O   0  0  0  0  0  1  0  0  0  0  0  0
    7.4819    1.2945   13.6873 O   0  0  0  0  0  0  0  0  0  0  0  0
    3.6970   -3.5555   17.4912 C   0  0  0  0  0  2  0  0  0  0  0  0
    5.0450    0.5744   15.5083 C   0  0  0  0  0  2  0  0  0  0  0  0
    4.3779   -0.2019   16.6401 C   0  0  0  0  0  2  0  0  0  0  0  0
    5.0022   -0.3540   14.2926 C   0  0  0  0  0  3  0  0  0  0  0  0
    7.1405    0.2661   13.1242 C   0  0  0  0  0  3  0  0  0  0  0  0
    4.0072   -4.0211   15.0679 C   0  0  0  0  0  2  0  0  0  0  0  0
    4.0789   -1.4832   14.7431 C   0  0  2  0  0  0  0  0  0  0  0  0
    2.9756   -3.6733   16.1624 C   0  0  0  0  0  3  0  0  0  0  0  0
    3.1868   -2.2957   16.8240 C   0  0  0  0  0  3  0  0  0  0  0  0
    6.4103   -0.8158   13.8640 C   0  0  0  0  0  3  0  0  0  0  0  0
    7.8141   -3.5859   14.0643 C   0  0  0  0  0  3  0  0  0  0  0  0
    9.3790   -2.4815   15.6120 C   0  0  0  0  0  1  0  0  0  0  0  0
    4.3492   -2.8618   14.1123 C   0  0  0  0  0  3  0  0  0  0  0  0
    4.2930   -1.5810   16.1863 N   0  0  0  0  0  0  0  0  0  0  0  0
  1 17  2  0
  2 18  1  0
  2  3  1  0
  8  9  1  0
 10 13  1  0
 10 16  1  0
 10  8  1  0
 11  6  2  0
 13  4  1  1
 13 20  1  0
 14 12  1  0
 14 15  1  0
 14  7  1  0
 15  7  1  0
 16 11  1  0
 16  3  1  0
 17  2  1  0
 19  5  1  0
 19 13  1  0
 19 12  1  0
 20 15  1  0
 20  9  1  0
M  RAD  8   2   2   3   3   4   2   5   2   7   3   8   3   9   3  10   2
M  RAD  8  11   2  12   3  14   2  15   2  16   2  17   2  18   2  19   2
M  END
$$$$

     RDKit          3D

 17 17  0  0  0  0  0  0  0  0999 V2000
    5.8893   -2.3901   18.3934 C   0  0  0  0  0  1  0  0  0  0  0  0
    6.7148   -4.5260   15.1583 C   0  0  0  0  0  2  0  0  0  0  0  0
    4.6224   -4.0893   17.2928 O   0  0  0  0  0  1  0  0  0  0  0  0
    7.8413   -2.4967   15.5332 O   0  0  0  0  0  0  0  0  0  0  0  0
    4.9377   -2.7292   17.2608 C   0  0  0  0  0  3  0  0  0  0  0  0
    4.9838    1.0990   11.3406 C   0  0  0  0  0  2  0  0  0  0  0  0
    6.7684   -3.0783   15.5336 C   0  0  0  0  0  0  0  0  0  0  0  0
    4.4555   -2.3983   14.8138 C   0  0  0  0  0  2  0  0  0  0  0  0
    4.8609   -1.6021   13.5810 C   0  0  0  0  0  2  0  0  0  0  0  0
    5.0572    2.6116   11.3317 C   0  0  0  0  0  2  0  0  0  0  0  0
    5.5199   -2.3195   15.9053 C   0  0  0  0  0  3  0  0  0  0  0  0
    4.8429    3.1186    9.9215 C   0  0  0  0  0  1  0  0  0  0  0  0
    7.2129    0.6986   14.5727 O   0  0  0  0  0  1  0  0  0  0  0  0
    5.1939    0.5973   12.7245 C   0  0  0  0  0  0  0  0  0  0  0  0
    6.0233    0.4588   13.8989 C   0  0  0  0  0  0  0  0  0  0  0  0
    4.7472   -0.1110   13.8447 C   0  0  0  0  0  3  0  0  0  0  0  0
    7.4409   -5.2814   16.0791 O   0  0  0  0  0  1  0  0  0  0  0  0
  2  7  1  0
  2 17  1  0
  4  7  2  0
  5  1  1  0
  5  3  1  0
  6 10  1  0
  6 14  1  0
  7 11  1  0
  9  8  1  0
 11  8  1  0
 11  5  1  0
 12 10  1  0
 14 16  1  0
 14 15  2  0
 15 13  1  0
 16 15  1  0
 16  9  1  0
M  RAD  8   1   2   2   3   3   2   5   2   6   3   8   3   9   3  10   3
M  RAD  5  11   2  12   2  13   2  16   2  17   2
M  END
$$$$

     RDKit          3D

 12 12  0  0  0  0  0  0  0  0999 V2000
    5.2301   -1.1083   16.9531 O   0  0  0  0  0  1  0  0  0  0  0  0
    8.9119   -4.3118   14.4251 C   0  0  0  0  0  2  0  0  0  0  0  0
    9.1344   -5.4263   15.4252 C   0  0  0  0  0  1  0  0  0  0  0  0
    3.3673   -1.4678   13.6440 O   0  0  0  0  0  0  0  0  0  0  0  0
    6.9670   -1.6351   14.1277 C   0  0  0  0  0  0  0  0  0  0  0  0
    4.6503    0.0555   14.9467 C   0  0  0  0  0  2  0  0  0  0  0  0
    8.2943   -1.9259   14.1639 C   0  0  0  0  0  3  0  0  0  0  0  0
    5.6389   -1.9431   13.7085 N   0  0  0  0  0  2  0  0  0  0  0  0
    4.5084   -1.1440   14.0644 C   0  0  0  0  0  0  0  0  0  0  0  0
    4.2656   -0.2801   16.3781 C   0  0  0  0  0  2  0  0  0  0  0  0
    8.5273   -3.0438   15.1601 C   0  0  0  0  0  2  0  0  0  0  0  0
    7.8754   -0.8073   14.8202 N   0  0  0  0  0  0  0  0  0  0  0  0
  3  2  1  0
  4  9  2  0
  5  7  1  0
  5 12  2  0
  6 10  1  0
  7 11  1  0
  7 12  1  0
  8  5  1  0
  9  6  1  0
  9  8  1  0
 10  1  1  0
 11  2  1  0
M  RAD  8   1   2   2   3   3   2   6   3   7   2   8   2  10   3  11   3
M  END
$$$$
/tmp/tmp26ascd5s
     RDKit          3D

 20 20  0  0  1  0  0  0  0  0999 V2000
    9.1124   -3.9898   16.1719 C   0  0  0  0  0  2  0  0  0  0  0  0
    4.3852   -0.2896   12.3778 C   0  0  0  0  0  2  0  0  0  0  0  0
    1.8988    1.9461   11.9350 C   0  0  0  0  0  3  0  0  0  0  0  0
    6.9021   -3.3432   17.2087 C   0  0  0  0  0  2  0  0  0  0  0  0
    6.4202   -2.2586   14.0919 C   0  0  1  0  0  0  0  0  0  0  0  0
    3.1758   -0.3338   11.0262 S   0  0  0  0  0  0  0  0  0  0  0  0
    0.0874    0.5330   13.5306 C   0  0  0  0  0  3  0  0  0  0  0  0
    0.9400    2.6360   12.6832 C   0  0  0  0  0  3  0  0  0  0  0  0
    5.1146   -2.0927   14.8777 C   0  0  0  0  0  2  0  0  0  0  0  0
    0.0348    1.9295   13.4814 C   0  0  0  0  0  3  0  0  0  0  0  0
    5.1143   -0.8604   15.6528 N   0  0  0  0  0  1  0  0  0  0  0  0
    6.3652   -3.4528   13.3672 O   0  0  0  0  0  1  0  0  0  0  0  0
    9.9091   -2.9437   16.9390 C   0  0  0  0  0  1  0  0  0  0  0  0
    6.6311   -1.0918   13.1197 C   0  0  0  0  0  2  0  0  0  0  0  0
    1.0459   -0.1573   12.7825 C   0  0  0  0  0  3  0  0  0  0  0  0
    1.9541    0.5490   11.9864 C   0  0  0  0  0  0  0  0  0  0  0  0
    7.6272   -2.3007   15.0355 C   0  0  0  0  0  2  0  0  0  0  0  0
    7.6702   -3.5543   15.9101 C   0  0  0  0  0  3  0  0  0  0  0  0
    5.6228   -1.0661   11.9757 C   0  0  0  0  0  2  0  0  0  0  0  0
    6.7077   -4.5658   17.8518 O   0  0  0  0  0  1  0  0  0  0  0  0
  1 18  1  0
  2 19  1  0
  3 16  2  0
  5 12  1  6
  5 17  1  0
  5  9  1  0
  6  2  1  0
  7 15  2  0
  8 10  2  0
  8  3  1  0
  9 11  1  0
 10  7  1  0
 13  1  1  0
 14  5  1  0
 14 19  1  0
 16 15  1  0
 16  6  1  0
 18 17  1  0
 18  4  1  0
 20  4  1  0
M  RAD  8   1   3   2   3   3   2   4   3   7   2   8   2   9   3  10   2
M  RAD  8  11   3  12   2  13   2  14   3  15   2  17   3  18   2  19   3
M  RAD  1  20   2
M  END
$$$$
/tmp/tmpl90yjxg8
     RDKit          3D

 20 21  0  0  1  0  0  0  0  0999 V2000
    3.2156   -0.6849   16.3143 O   0  0  0  0  0  1  0  0  0  0  0  0
    4.6857    0.2442   14.6967 C   0  0  0  0  0  2  0  0  0  0  0  0
    3.6624   -0.8472   15.0022 C   0  0  0  0  0  3  0  0  0  0  0  0
    5.5688   -1.6979   12.2262 S   0  0  0  0  0  0  0  0  0  0  0  0
    4.6090    0.6889   13.2419 C   0  0  0  0  0  2  0  0  0  0  0  0
    4.2059   -5.8712   16.2355 C   0  0  0  0  0  1  0  0  0  0  0  0
    5.7210    0.1315   12.3437 C   0  0  2  0  0  0  0  0  0  0  0  0
    5.4982   -2.3547   15.5091 O   0  0  0  0  0  0  0  0  0  0  0  0
    5.4591    0.6639   10.9473 C   0  0  0  0  0  1  0  0  0  0  0  0
    3.3899   -3.3053   15.0559 O   0  0  0  0  0  0  0  0  0  0  0  0
    7.2883   -4.0208   15.2554 C   0  0  0  0  0  1  0  0  0  0  0  0
    1.8695   -5.4203   16.0877 O   0  0  0  0  0  1  0  0  0  0  0  0
    3.0480   -5.0175   16.7161 C   0  0  0  0  0  3  0  0  0  0  0  0
    6.5073   -2.8661   14.6646 C   0  0  1  0  0  0  0  0  0  0  0  0
    4.2859   -2.2389   14.8116 C   0  0  0  0  0  3  0  0  0  0  0  0
    6.9413   -2.4013   13.2461 C   0  0  0  0  0  3  0  0  0  0  0  0
    7.1614    2.0077   12.8480 O   0  0  0  0  0  1  0  0  0  0  0  0
    7.4418   -1.6858   14.4702 C   0  0  0  0  0  2  0  0  0  0  0  0
    3.3149   -3.5456   16.4397 C   0  0  0  0  0  2  0  0  0  0  0  0
    7.1098    0.6132   12.7668 C   0  0  0  0  0  2  0  0  0  0  0  0
  2  3  1  0
  3  1  1  0
  4 16  1  0
  5  2  1  0
  7  9  1  6
  7  4  1  0
  7  5  1  0
 10 19  1  0
 12 13  1  0
 13  6  1  0
 13 19  1  0
 14 18  1  0
 14 11  1  1
 14  8  1  0
 15 10  1  0
 15  8  1  0
 15  3  1  0
 16 14  1  0
 16 18  1  0
 20 17  1  0
 20  7  1  0
M  RAD  8   1   2   2   3   3   2   5   3   6   2   9   2  11   2  12   2
M  RAD  7  13   2  15   2  16   2  17   2  18   3  19   3  20   3
M  END
$$$$
/tmp/tmpix4r5ser
     RDKit          3D

 20 20  0  0  1  0  0  0  0  0999 V2000
    8.9281   -3.5262   15.6871 O   0  0  0  0  0  0  0  0  0  0  0  0
    8.4538   -3.9597   13.4167 C   0  0  0  0  0  2  0  0  0  0  0  0
    9.0211   -5.8044   15.1293 C   0  0  0  0  0  1  0  0  0  0  0  0
    1.4072    0.0752   14.7639 C   0  0  0  0  0  2  0  0  0  0  0  0
    4.9568   -3.8503   15.6404 C   0  0  0  0  0  2  0  0  0  0  0  0
    6.6168   -2.1833   13.5711 C   0  0  0  0  0  3  0  0  0  0  0  0
    3.8825   -0.2288   14.8546 C   0  0  0  0  0  2  0  0  0  0  0  0
    6.4854   -1.9151   15.0810 C   0  0  0  0  0  3  0  0  0  0  0  0
    5.1070   -2.3294   15.6632 C   0  0  1  0  0  0  0  0  0  0  0  0
    8.7939   -4.3669   14.8135 C   0  0  0  0  0  0  0  0  0  0  0  0
    6.9677   -3.6403   13.2604 C   0  0  0  0  0  2  0  0  0  0  0  0
    5.9455   -4.4715   16.4087 O   0  0  0  0  0  1  0  0  0  0  0  0
    0.5188    1.1930   14.2721 C   0  0  0  0  0  2  0  0  0  0  0  0
    2.8389    1.7471   13.7692 C   0  0  0  0  0  2  0  0  0  0  0  0
    3.9379   -1.7531   14.8508 C   0  0  0  0  0  2  0  0  0  0  0  0
    7.5392   -1.3191   12.9718 O   0  0  0  0  0  1  0  0  0  0  0  0
    6.7632   -0.5725   15.3649 O   0  0  0  0  0  1  0  0  0  0  0  0
    4.9865   -1.8731   17.1156 C   0  0  0  0  0  1  0  0  0  0  0  0
    1.4497    2.3403   13.9341 C   0  0  0  0  0  2  0  0  0  0  0  0
    2.7122    0.2583   14.0207 C   0  0  0  0  0  3  0  0  0  0  0  0
  2 11  1  0
  2 10  1  0
  3 10  1  0
  5  9  1  0
  5 12  1  0
  6 16  1  0
  6  8  1  0
  7 15  1  0
  8 17  1  0
  9  8  1  0
  9 18  1  1
 10  1  2  0
 11  6  1  0
 13  4  1  0
 14 20  1  0
 15  9  1  0
 19 14  1  0
 19 13  1  0
 20  4  1  0
 20  7  1  0
M  RAD  8   2   3   3   2   4   3   5   3   6   2   7   3   8   2  11   3
M  RAD  8  12   2  13   3  14   3  15   3  16   2  17   2  18   2  19   3
M  RAD  1  20   2
M  END
$$$$
/tmp/tmpzj7c3f5r
     RDKit          3D

 20 20  0  0  1  0  0  0  0  0999 V2000
    4.8684   -0.4132   14.8031 C   0  0  0  0  0  3  0  0  0  0  0  0
    5.9468   -2.6698   11.7513 O   0  0  0  0  0  0  0  0  0  0  0  0
    7.0216   -2.7093   15.2743 C   0  0  0  0  0  3  0  0  0  0  0  0
    6.7062   -2.0688   13.9077 C   0  0  0  0  0  3  0  0  0  0  0  0
    4.2405   -2.1403   16.6409 C   0  0  0  0  0  2  0  0  0  0  0  0
    5.9678   -2.9449   12.9397 C   0  0  0  0  0  3  0  0  0  0  0  0
    3.5527   -0.8746   12.8114 N   0  0  0  0  0  2  0  0  0  0  0  0
    7.2050    0.2680   14.4515 N   0  0  0  0  0  2  0  0  0  0  0  0
    8.4530   -3.2338   15.3355 C   0  0  0  0  0  2  0  0  0  0  0  0
    3.5657   -0.6741   14.0901 C   0  0  0  0  0  0  0  0  0  0  0  0
    8.6769   -4.4060   14.3924 C   0  0  0  0  0  1  0  0  0  0  0  0
    7.2129    1.4103   13.5545 C   0  0  0  0  0  2  0  0  0  0  0  0
    2.3345   -0.4787   14.7951 N   0  0  0  0  0  2  0  0  0  0  0  0
    0.7430    0.6447   13.3320 C   0  0  0  0  0  1  0  0  0  0  0  0
    6.0191   -3.7508   15.7916 C   0  0  0  0  0  2  0  0  0  0  0  0
    8.2790    2.3903   13.9958 C   0  0  0  0  0  1  0  0  0  0  0  0
    6.1611   -0.6322   13.9873 C   0  0  0  0  0  3  0  0  0  0  0  0
    1.0262   -0.5900   14.1660 C   0  0  0  0  0  2  0  0  0  0  0  0
    4.5684   -3.2915   15.6967 C   0  0  0  0  0  2  0  0  0  0  0  0
    4.9442   -0.8263   16.2841 C   0  0  0  0  0  2  0  0  0  0  0  0
  1 10  1  0
  1 20  1  0
  2  6  2  0
  3  9  1  0
  3 15  1  0
  4  6  1  0
  4 17  1  0
  4  3  1  0
  7 10  2  0
 10 13  1  0
 11  9  1  0
 12  8  1  0
 14 18  1  0
 16 12  1  0
 17  8  1  0
 17  1  1  0
 18 13  1  0
 19 15  1  0
 19  5  1  0
 20  5  1  0
M  RAD  8   1   2   3   2   4   2   5   3   6   2   7   2   8   2   9   3
M  RAD  8  11   2  12   3  13   2  14   2  15   3  16   2  17   2  18   3
M  RAD  2  19   3  20   3
M  END
$$$$

     RDKit          3D

 16 17  0  0  0  0  0  0  0  0999 V2000
    4.8090   -0.6745   15.2204 C   0  0  1  0  0  0  0  0  0  0  0  0
    7.2512   -3.6453   15.6619 C   0  0  0  0  0  3  0  0  0  0  0  0
    5.6570   -1.7348   15.9063 C   0  0  0  0  0  3  0  0  0  0  0  0
    4.1595   -1.9517   15.6941 C   0  0  0  0  0  2  0  0  0  0  0  0
    2.0596    1.7728   12.5427 C   0  0  0  0  0  3  0  0  0  0  0  0
    3.2914    1.3524   13.0536 C   0  0  0  0  0  3  0  0  0  0  0  0
    6.3461   -4.7641   16.1557 C   0  0  0  0  0  2  0  0  0  0  0  0
    4.5057    0.4747   16.0552 N   0  0  0  0  0  1  0  0  0  0  0  0
    1.1158    0.8282   12.1276 C   0  0  0  0  0  3  0  0  0  0  0  0
    2.6347   -0.9577   12.7349 C   0  0  0  0  0  3  0  0  0  0  0  0
    6.4335   -2.6011   14.9224 C   0  0  0  0  0  2  0  0  0  0  0  0
    4.8903   -0.4626   13.7076 C   0  0  0  0  0  2  0  0  0  0  0  0
    7.0503   -5.5848   17.2197 C   0  0  0  0  0  1  0  0  0  0  0  0
    8.2979   -4.2073   14.7184 C   0  0  0  0  0  1  0  0  0  0  0  0
    3.5820   -0.0135   13.1474 C   0  0  0  0  0  0  0  0  0  0  0  0
    1.4031   -0.5368   12.2241 C   0  0  0  0  0  3  0  0  0  0  0  0
  1  8  1  1
  1  3  1  0
  1  4  1  0
  2 14  1  0
  3 11  1  0
  3  4  1  0
  5  6  2  0
  5  9  1  0
  6 15  1  0
  7  2  1  0
  9 16  2  0
 11  2  1  0
 12  1  1  0
 13  7  1  0
 15 12  1  0
 15 10  2  0
 16 10  1  0
M  RAD  8   2   2   3   2   4   3   5   2   6   2   7   3   8   3   9   2
M  RAD  6  10   2  11   3  12   3  13   2  14   2  16   2
M  END
$$$$

     RDKit          3D

 10 10  0  0  0  0  0  0  0  0999 V2000
    2.0881   -0.4709   13.1442 C   0  0  0  0  0  3  0  0  0  0  0  0
    1.1539    1.7626   10.9763 C   0  0  0  0  0  3  0  0  0  0  0  0
    2.5096    2.1955   11.3650 C   0  0  0  0  0  3  0  0  0  0  0  0
    0.4971    0.6744   11.4489 C   0  0  0  0  0  3  0  0  0  0  0  0
    4.4528    0.3165   13.8881 C   0  0  0  0  0  2  0  0  0  0  0  0
    6.4477   -1.0540   14.4017 C   0  0  0  0  0  1  0  0  0  0  0  0
    3.2382    0.4454   13.0358 C   0  0  0  0  0  0  0  0  0  0  0  0
    5.2187   -0.9412   13.5249 C   0  0  0  0  0  2  0  0  0  0  0  0
    3.0798    1.4314   12.2267 C   0  0  0  0  0  0  0  0  0  0  0  0
    0.9271   -0.3576   12.4554 C   0  0  0  0  0  3  0  0  0  0  0  0
  2  3  1  0
  2  4  2  0
  3  9  2  0
  4 10  1  0
  7  1  1  0
  7  5  1  0
  8  5  1  0
  8  6  1  0
  9  7  2  0
 10  1  2  0
M  RAD  8   1   2   2   2   3   2   4   2   5   3   6   2   8   3  10   2
M  END
$$$$
/tmp/tmpdczi37nt
     RDKit          3D

 20 20  0  0  1  0  0  0  0  0999 V2000
    2.4899   -4.5275   16.5474 N   0  0  0  0  0  2  0  0  0  0  0  0
    5.7968    1.8950   13.8320 C   0  0  0  0  0  3  0  0  0  0  0  0
    7.5588    3.5156   13.4235 C   0  0  0  0  0  1  0  0  0  0  0  0
    1.9019   -5.0882   15.3731 C   0  0  0  0  0  0  0  0  0  0  0  0
    5.2756    0.5650   13.3608 C   0  0  0  0  0  0  0  0  0  0  0  0
    4.6066   -0.4052   14.3000 C   0  0  0  0  0  3  0  0  0  0  0  0
    7.2097    2.0438   13.4846 C   0  0  0  0  0  3  0  0  0  0  0  0
    2.7433   -3.1007   16.6850 C   0  0  0  0  0  2  0  0  0  0  0  0
    4.3835    0.1625   15.5591 O   0  0  0  0  0  1  0  0  0  0  0  0
    5.3940   -1.7146   14.4096 C   0  0  0  0  0  3  0  0  0  0  0  0
    1.7102   -6.5583   15.2777 C   0  0  0  0  0  1  0  0  0  0  0  0
    6.8319    1.6947   14.8594 N   0  0  0  0  0  2  0  0  0  0  0  0
    4.6872   -4.7971   13.5168 O   0  0  0  0  0  0  0  0  0  0  0  0
    6.1322   -4.7375   15.2932 O   0  0  0  0  0  1  0  0  0  0  0  0
    1.5414   -4.3491   14.4188 O   0  0  0  0  0  0  0  0  0  0  0  0
    6.6864   -1.5619   15.2095 C   0  0  0  0  0  1  0  0  0  0  0  0
    4.5096   -2.8655   14.9035 C   0  0  0  0  0  3  0  0  0  0  0  0
    4.2036   -2.7837   16.3987 C   0  0  0  0  0  2  0  0  0  0  0  0
    5.1011   -4.1904   14.5384 C   0  0  0  0  0  0  0  0  0  0  0  0
    5.3383    0.2860   12.1729 O   0  0  0  0  0  0  0  0  0  0  0  0
  1  8  1  0
  2  5  1  0
  2 12  1  0
  4 11  1  0
  4  1  1  0
  5  6  1  0
  6 10  1  0
  6  9  1  0
  7  3  1  0
  7  2  1  0
  7 12  1  0
 10 16  1  0
 13 19  2  0
 15  4  2  0
 17 10  1  0
 17 18  1  0
 18  8  1  0
 19 14  1  0
 19 17  1  0
 20  5  2  0
M  RAD  8   1   2   2   2   3   2   6   2   7   2   8   3   9   2  10   2
M  RAD  6  11   2  12   2  14   2  16   2  17   2  18   3
M  END
$$$$

     RDKit          3D

 15 15  0  0  0  0  0  0  0  0999 V2000
    5.7205    0.6209   14.4142 C   0  0  0  0  0  2  0  0  0  0  0  0
    1.8841    0.2084   13.5031 C   0  0  0  0  0  2  0  0  0  0  0  0
    7.5342   -2.2740   12.5119 C   0  0  0  0  0  1  0  0  0  0  0  0
    2.2507   -0.9266   14.4353 C   0  0  0  0  0  2  0  0  0  0  0  0
    5.2308   -1.8031   15.6401 C   0  0  0  0  0  3  0  0  0  0  0  0
    6.2001   -2.1839   13.2260 C   0  0  0  0  0  2  0  0  0  0  0  0
    0.5953    0.8488   13.9722 C   0  0  0  0  0  1  0  0  0  0  0  0
    5.0502   -0.5808   16.5435 C   0  0  0  0  0  2  0  0  0  0  0  0
    3.4475   -1.5073   14.0116 O   0  0  0  0  0  0  0  0  0  0  0  0
    6.8370   -0.2252   14.5463 O   0  0  0  0  0  0  0  0  0  0  0  0
    6.3808   -1.5660   14.6119 C   0  0  0  0  0  3  0  0  0  0  0  0
    4.9645    0.7228   15.7418 C   0  0  0  0  0  2  0  0  0  0  0  0
    2.5564   -4.3178   14.4877 C   0  0  0  0  0  1  0  0  0  0  0  0
    3.8765   -2.2866   15.0929 C   0  0  0  0  0  3  0  0  0  0  0  0
    3.9484   -3.7575   14.7057 C   0  0  0  0  0  2  0  0  0  0  0  0
  1 12  1  0
  2  4  1  0
  3  6  1  0
  4  9  1  0
  5 14  1  0
  5  8  1  0
  7  2  1  0
  9 14  1  0
 10  1  1  0
 11  6  1  0
 11 10  1  0
 11  5  1  0
 12  8  1  0
 14 15  1  0
 15 13  1  0
M  RAD  8   1   3   2   3   3   2   4   3   5   2   6   3   7   2   8   3
M  RAD  5  11   2  12   3  13   2  14   2  15   3
M  END
$$$$

     RDKit          3D

 17 18  0  0  0  0  0  0  0  0999 V2000
    3.0598   -1.1005   15.8771 C   0  0  0  0  0  3  0  0  0  0  0  0
    7.6312   -2.2595   14.4794 C   0  0  0  0  0  2  0  0  0  0  0  0
    3.0571   -3.6077   15.5536 C   0  0  0  0  0  0  0  0  0  0  0  0
    5.3797   -3.8637   12.4037 O   0  0  0  0  0  1  0  0  0  0  0  0
    5.5782   -2.5919   12.9264 C   0  0  0  0  0  0  0  0  0  0  0  0
    1.9136   -4.4410   15.0902 C   0  0  0  0  0  1  0  0  0  0  0  0
    8.3504   -3.5168   14.1237 C   0  0  0  0  0  0  0  0  0  0  0  0
    6.1262   -2.4231   14.3211 C   0  0  1  0  0  0  0  0  0  0  0  0
    4.2385   -3.8357   15.0848 N   0  0  0  0  0  0  0  0  0  0  0  0
    5.4303   -3.1071   15.4983 C   0  0  0  0  0  3  0  0  0  0  0  0
    5.3292   -1.5740   15.3100 C   0  0  0  0  0  3  0  0  0  0  0  0
    1.7569   -0.5264   15.3594 C   0  0  0  0  0  1  0  0  0  0  0  0
    5.3659   -1.5827   12.2041 O   0  0  0  0  0  0  0  0  0  0  0  0
    4.0278   -1.1626   14.7802 N   0  0  0  0  0  2  0  0  0  0  0  0
    8.8125   -3.6708   12.9636 O   0  0  0  0  0  0  0  0  0  0  0  0
    2.7966   -2.4767   16.5114 C   0  0  0  0  0  2  0  0  0  0  0  0
    8.4819   -4.5317   15.0620 O   0  0  0  0  0  1  0  0  0  0  0  0
  1 12  1  0
  1 16  1  0
  1 14  1  0
  2  7  1  0
  3 16  1  0
  4  5  1  0
  5  8  1  0
  6  3  1  0
  7 17  1  0
  8 10  1  0
  8  2  1  6
  8 11  1  0
  9  3  2  0
 10  9  1  0
 10 11  1  0
 11 14  1  0
 13  5  2  0
 15  7  2  0
M  RAD  8   1   2   2   3   4   2   6   2  10   2  11   2  12   2  14   2
M  RAD  2  16   3  17   2
M  END
$$$$
/tmp/tmp2k9mh1oo
     RDKit          3D

 20 20  0  0  1  0  0  0  0  0999 V2000
    6.5328    1.3030   13.7645 C   0  0  0  0  0  2  0  0  0  0  0  0
    6.3205   -3.5323   13.6723 N   0  0  0  0  0  2  0  0  0  0  0  0
    8.9272   -4.9277   13.9665 C   0  0  0  0  0  1  0  0  0  0  0  0
    3.8877   -3.3958   14.1096 C   0  0  0  0  0  3  0  0  0  0  0  0
    7.7157    0.4081   13.4521 C   0  0  0  0  0  1  0  0  0  0  0  0
    1.9277   -1.8845   16.1577 C   0  0  0  0  0  3  0  0  0  0  0  0
    3.8825   -1.9394   14.6060 C   0  0  0  0  0  3  0  0  0  0  0  0
    5.9270   -0.0871   15.9776 O   0  0  0  0  0  0  0  0  0  0  0  0
    4.0229   -0.5259   12.4775 C   0  0  0  0  0  1  0  0  0  0  0  0
    4.1629    1.3155   15.0154 O   0  0  0  0  0  0  0  0  0  0  0  0
    1.5200   -3.1386   16.3376 C   0  0  0  0  0  2  0  0  0  0  0  0
    4.7310   -0.9928   13.7425 C   0  0  0  0  0  3  0  0  0  0  0  0
    5.1999   -4.1436   14.3689 C   0  0  0  0  0  3  0  0  0  0  0  0
    5.3119    0.4010   14.6957 S   0  0  1  0  0  0  0  0  0  0  0  0
    8.7056   -3.4534   14.2666 C   0  0  0  0  0  2  0  0  0  0  0  0
    7.2755   -3.1702   14.7138 C   0  0  0  0  0  3  0  0  0  0  0  0
    5.5412   -4.1754   15.8398 C   0  0  0  0  0  2  0  0  0  0  0  0
    3.5270   -3.4849   12.7630 O   0  0  0  0  0  1  0  0  0  0  0  0
    6.9583   -3.8919   15.9386 N   0  0  0  0  0  2  0  0  0  0  0  0
    2.4607   -1.4270   14.8373 C   0  0  0  0  0  2  0  0  0  0  0  0
 14  1  1  6
  2 13  1  0
  2 16  1  0
  3 15  1  0
  4 18  1  0
  4  7  1  0
  5  1  1  0
  6 11  2  0
  7 20  1  0
 12  9  1  0
 12  7  1  0
 12 14  1  0
 13  4  1  0
 13 17  1  0
 14 10  2  0
 14  8  2  0
 16 15  1  0
 16 19  1  0
 17 19  1  0
 20  6  1  0
M  RAD  8   1   3   2   2   3   2   4   2   5   2   6   2   7   2   9   2
M  RAD  8  11   3  12   2  13   2  15   3  16   2  17   3  18   2  19   2
M  RAD  1  20   3
M  END
$$$$
/tmp/tmpa071p0us
     RDKit          3D

 20 22  0  0  1  0  0  0  0  0999 V2000
    8.1564   -1.8287   15.5670 C   0  0  0  0  0  2  0  0  0  0  0  0
    4.7334    0.0790   13.4889 C   0  0  0  0  0  3  0  0  0  0  0  0
    2.0770   -0.4833   15.0500 O   0  0  0  0  0  0  0  0  0  0  0  0
    5.5114    0.1314   14.8057 C   0  0  2  0  0  0  0  0  0  0  0  0
    6.7332    0.9212   14.7077 N   0  0  0  0  0  1  0  0  0  0  0  0
    5.6123   -0.1223   12.2852 C   0  0  0  0  0  0  0  0  0  0  0  0
    5.7581   -1.3449   15.1391 C   0  0  0  0  0  3  0  0  0  0  0  0
    3.8631   -1.1682   13.5960 C   0  0  0  0  0  3  0  0  0  0  0  0
    6.9090   -3.4837   14.3074 C   0  0  0  0  0  2  0  0  0  0  0  0
    5.3680    0.5858   11.1930 C   0  0  0  0  0  2  0  0  0  0  0  0
    6.5665   -1.1449   12.2329 O   0  0  0  0  0  0  0  0  0  0  0  0
    4.4776   -2.0475   14.6781 C   0  0  0  0  0  2  0  0  0  0  0  0
    7.0525   -1.9758   14.5320 C   0  0  2  0  0  0  0  0  0  0  0  0
    7.5618   -1.3250   13.2363 C   0  0  0  0  0  2  0  0  0  0  0  0
    7.1837   -5.3566   15.9144 C   0  0  0  0  0  1  0  0  0  0  0  0
    8.2554   -3.1551   16.2833 C   0  0  0  0  0  2  0  0  0  0  0  0
    7.8690   -4.1815   15.2494 C   0  0  0  0  0  3  0  0  0  0  0  0
    2.4374   -0.8249   13.8921 C   0  0  0  0  0  0  0  0  0  0  0  0
    1.2304   -0.8536   12.5591 S   0  0  0  0  0  1  0  0  0  0  0  0
    4.6726    0.7196   15.8383 N   0  0  0  0  0  1  0  0  0  0  0  0
  2  6  1  0
  2  8  1  0
  2  4  1  0
  4  7  1  0
  4 20  1  1
  5  4  1  0
  7 12  1  0
  8 18  1  0
  8 12  1  0
 10  6  2  0
 11  6  1  0
 11 14  1  0
 13 14  1  6
 13  7  1  0
 13  9  1  0
 13  1  1  0
 16  1  1  0
 17  9  1  0
 17 16  1  0
 17 15  1  0
 18  3  2  0
 19 18  1  0
M  RAD  8   1   3   2   2   5   3   7   2   8   2   9   3  10   3  12   3
M  RAD  6  14   3  15   2  16   3  17   2  19   2  20   3
M  END
$$$$

     RDKit          3D

 19 19  0  0  0  0  0  0  0  0999 V2000
    3.9048   -1.6960   14.0434 C   0  0  0  0  0  2  0  0  0  0  0  0
    0.6306   -0.0975   12.9343 N   0  0  0  0  0  0  0  0  0  0  0  0
    1.9136    1.0111   11.3815 C   0  0  0  0  0  3  0  0  0  0  0  0
    7.4254   -4.7819   14.0990 C   0  0  0  0  0  2  0  0  0  0  0  0
    4.6451   -0.9069   15.1349 C   0  0  1  0  0  0  0  0  0  0  0  0
    6.0610   -1.4075   15.3150 C   0  0  0  0  0  0  0  0  0  0  0  0
    7.6602   -6.0202   14.7003 O   0  0  0  0  0  1  0  0  0  0  0  0
    4.6964    0.5681   14.7654 C   0  0  0  0  0  1  0  0  0  0  0  0
    6.8992   -3.7837   15.1182 C   0  0  1  0  0  0  0  0  0  0  0  0
    6.6586   -2.4528   14.4093 C   0  0  0  0  0  2  0  0  0  0  0  0
    3.9640   -1.0476   16.3469 O   0  0  0  0  0  1  0  0  0  0  0  0
    6.7519   -0.9381   16.2077 O   0  0  0  0  0  0  0  0  0  0  0  0
    0.5951    0.7553   11.9665 C   0  0  0  0  0  0  0  0  0  0  0  0
    5.7019   -4.2589   15.6592 O   0  0  0  0  0  1  0  0  0  0  0  0
    7.8408   -3.6196   16.1367 O   0  0  0  0  0  1  0  0  0  0  0  0
   -0.6642    1.3979   11.5074 C   0  0  0  0  0  1  0  0  0  0  0  0
    2.4535   -1.3328   13.9324 C   0  0  0  0  0  3  0  0  0  0  0  0
    2.7871    0.2626   12.0448 C   0  0  0  0  0  3  0  0  0  0  0  0
    1.9982   -0.4534   13.0422 C   0  0  0  0  0  0  0  0  0  0  0  0
  1 17  1  0
  1  5  1  0
  3 18  2  0
  3 13  1  0
  4  7  1  0
  4  9  1  0
  5  8  1  6
  5  6  1  0
  5 11  1  0
  6 12  2  0
  9 14  1  1
  9 15  1  0
 10  9  1  0
 10  6  1  0
 13  2  2  0
 16 13  1  0
 18 19  1  0
 19  2  1  0
 19 17  2  0
M  RAD  8   1   3   3   2   4   3   7   2   8   2  10   3  11   2  14   2
M  RAD  4  15   2  16   2  17   2  18   2
M  END
$$$$
/tmp/tmp2flknyqc
     RDKit          3D

 20 21  0  0  1  0  0  0  0  0999 V2000
    7.1013   -1.6852   15.7770 C   0  0  0  0  0  2  0  0  0  0  0  0
    0.9151   -1.2215   14.0043 C   0  0  0  0  0  2  0  0  0  0  0  0
    5.1859   -0.1035   13.7774 N   0  0  0  0  0  2  0  0  0  0  0  0
    7.3888   -1.7279   12.5159 O   0  0  0  0  0  1  0  0  0  0  0  0
    6.8771   -3.9598   12.5640 O   0  0  0  0  0  0  0  0  0  0  0  0
    8.8005   -4.7432   15.8607 C   0  0  0  0  0  2  0  0  0  0  0  0
    8.4590   -2.3208   15.5176 C   0  0  0  0  0  2  0  0  0  0  0  0
    8.7549   -3.3939   16.5486 C   0  0  0  0  0  3  0  0  0  0  0  0
    1.5769    0.1391   14.0708 C   0  0  0  0  0  3  0  0  0  0  0  0
    5.0083    0.2870   15.0645 O   0  0  0  0  0  1  0  0  0  0  0  0
    1.9659    2.1515   12.6763 C   0  0  0  0  0  1  0  0  0  0  0  0
    5.5196   -2.5804   13.9573 C   0  0  0  0  0  3  0  0  0  0  0  0
    3.3002   -1.5457   14.2725 N   0  0  0  0  0  2  0  0  0  0  0  0
    5.9600   -2.6384   15.4274 C   0  0  0  0  0  2  0  0  0  0  0  0
    2.2809   -1.0153   13.3835 C   0  0  0  0  0  3  0  0  0  0  0  0
   -0.1935    1.6297   13.5132 O   0  0  0  0  0  1  0  0  0  0  0  0
   10.0876   -4.0353   16.2230 C   0  0  0  0  0  2  0  0  0  0  0  0
    0.9776    1.0549   13.0201 C   0  0  0  0  0  3  0  0  0  0  0  0
    6.6220   -2.7956   12.9672 C   0  0  0  0  0  0  0  0  0  0  0  0
    4.5809   -1.4258   13.5836 C   0  0  0  0  0  3  0  0  0  0  0  0
  3 10  1  0
  4 19  1  0
  5 19  2  0
  6  8  1  0
  6 17  1  0
  7  1  1  0
  8 17  1  0
  8  7  1  0
  9 18  1  0
  9 15  1  0
  9  2  1  0
 12 20  1  0
 12 14  1  0
 14  1  1  0
 15  2  1  0
 15 13  1  0
 18 11  1  0
 18 16  1  0
 19 12  1  0
 20 13  1  0
 20  3  1  0
M  RAD  8   1   3   2   3   3   2   4   2   6   3   7   3   8   2   9   2
M  RAD  8  10   2  11   2  12   2  13   2  14   3  15   2  16   2  17   3
M  RAD  2  18   2  20   2
M  END
$$$$
/tmp/tmpbz9vcjwa
     RDKit          3D

 20 22  0  0  1  0  0  0  0  0999 V2000
   10.2280   -4.4028   13.6690 C   0  0  0  0  0  1  0  0  0  0  0  0
    7.5868    0.2350   15.4480 C   0  0  0  0  0  2  0  0  0  0  0  0
    5.5376   -0.7392   16.1286 C   0  0  0  0  0  3  0  0  0  0  0  0
    5.6365    1.2186   11.9481 C   0  0  0  0  0  2  0  0  0  0  0  0
    3.1523   -4.0291   13.7070 C   0  0  0  0  0  2  0  0  0  0  0  0
    4.6778    0.1847   15.2556 C   0  0  0  0  0  2  0  0  0  0  0  0
    6.0707   -3.5362   14.8825 C   0  0  0  0  0  2  0  0  0  0  0  0
    4.7076   -3.1248   15.4618 C   0  0  0  0  0  3  0  0  0  0  0  0
    8.4570   -4.1852   15.3891 C   0  0  0  0  0  2  0  0  0  0  0  0
    7.2308   -3.4237   15.8832 C   0  0  0  0  0  3  0  0  0  0  0  0
    5.4619    1.0170   14.3261 N   0  0  0  0  0  0  0  0  0  0  0  0
    4.0874   -4.5981   12.8422 O   0  0  0  0  0  1  0  0  0  0  0  0
    5.6621    0.2891   13.0746 C   0  0  0  0  0  3  0  0  0  0  0  0
    7.5961   -1.9736   16.2537 C   0  0  0  0  0  2  0  0  0  0  0  0
    6.7647    1.4138   14.8878 C   0  0  0  0  0  2  0  0  0  0  0  0
    4.7551   -2.0080   16.5190 C   0  0  0  0  0  2  0  0  0  0  0  0
    3.7258   -2.7771   14.3508 C   0  0  0  0  0  2  0  0  0  0  0  0
    9.0176   -3.6025   14.0997 C   0  0  0  0  0  2  0  0  0  0  0  0
    4.4529    0.4005   12.2423 N   0  0  0  0  0  2  0  0  0  0  0  0
    6.8231   -1.0095   15.4727 N   0  0  0  0  0  0  0  0  0  0  0  0
  1 18  1  0
  3  6  1  0
  3 16  1  0
  4 19  1  0
  5 17  1  0
  7  8  1  0
  7 10  1  0
  8 17  1  0
  8 16  1  0
 10  9  1  0
 11 15  1  0
 11  6  1  0
 12  5  1  0
 13  4  1  0
 13 11  1  0
 14 10  1  0
 15  2  1  0
 18  9  1  0
 19 13  1  0
 20  2  1  0
 20 14  1  0
 20  3  1  0
M  RAD  8   1   2   2   3   3   2   4   3   5   3   6   3   7   3   8   2
M  RAD  8   9   3  10   2  12   2  13   2  14   3  15   3  16   3  17   3
M  RAD  2  18   3  19   2
M  END
$$$$
/tmp/tmphjlx7_3e
     RDKit          3D

 20 20  0  0  1  0  0  0  0  0999 V2000
    9.1358   -4.5039   14.4622 C   0  0  0  0  0  2  0  0  0  0  0  0
    7.0417   -0.6002   14.8798 C   0  0  0  0  0  2  0  0  0  0  0  0
    7.9040   -2.7641   15.7922 C   0  0  0  0  0  2  0  0  0  0  0  0
    2.9940   -0.2295   13.3464 C   0  0  0  0  0  0  0  0  0  0  0  0
    0.4001   -0.3199   12.2248 C   0  0  0  0  0  3  0  0  0  0  0  0
    2.2652   -1.5543   13.2677 C   0  0  0  0  0  2  0  0  0  0  0  0
    5.8682   -0.4201   15.8366 C   0  0  0  0  0  3  0  0  0  0  0  0
    5.8450    0.9459   16.3304 N   0  0  0  0  0  1  0  0  0  0  0  0
    1.7939   -2.4909   17.1101 C   0  0  0  0  0  1  0  0  0  0  0  0
    4.5655   -0.7493   15.1762 C   0  0  0  0  0  0  0  0  0  0  0  0
    3.7687   -1.8770   15.7521 C   0  0  0  0  0  2  0  0  0  0  0  0
    6.8932   -4.8684   15.2334 O   0  0  0  0  0  1  0  0  0  0  0  0
    8.1073   -4.2565   15.5555 C   0  0  0  0  0  3  0  0  0  0  0  0
    1.4264    0.6058   11.6231 C   0  0  0  0  0  2  0  0  0  0  0  0
    4.1678   -0.0426   14.1533 N   0  0  0  0  0  0  0  0  0  0  0  0
    2.5973    0.7756   12.5558 C   0  0  0  0  0  3  0  0  0  0  0  0
    9.5413   -5.9649   14.4431 C   0  0  0  0  0  1  0  0  0  0  0  0
    0.7964   -1.3416   12.9980 C   0  0  0  0  0  3  0  0  0  0  0  0
    7.2936   -2.0703   14.5803 C   0  0  0  0  0  2  0  0  0  0  0  0
    2.6057   -1.3366   16.5627 C   0  0  0  0  0  2  0  0  0  0  0  0
  1 13  1  0
  1 17  1  0
  2  7  1  0
  4  6  1  0
  4 15  1  0
  5 18  2  0
  7  8  1  0
 10 11  1  0
 10  7  1  0
 11 20  1  0
 13 12  1  0
 13  3  1  0
 14  5  1  0
 14 16  1  0
 15 10  2  0
 16  4  2  0
 18  6  1  0
 19  2  1  0
 19  3  1  0
 20  9  1  0
M  RAD  8   1   3   2   3   3   3   5   2   6   3   7   2   8   3   9   2
M  RAD  8  11   3  12   2  13   2  14   3  16   2  17   2  18   2  19   3
M  RAD  1  20   3
M  END
$$$$

     RDKit          3D

 11 12  0  0  0  0  0  0  0  0999 V2000
    8.0990   -2.7125   14.2035 C   0  0  0  0  0  3  0  0  0  0  0  0
    7.6137    0.6245   13.7054 O   0  0  0  0  0  0  0  0  0  0  0  0
    7.1326   -0.4948   13.6504 C   0  0  0  0  0  0  0  0  0  0  0  0
    9.6084   -5.2409   15.7329 C   0  0  0  0  0  1  0  0  0  0  0  0
    6.8373   -1.8684   14.2504 C   0  0  0  0  0  3  0  0  0  0  0  0
    4.6294   -1.2132   12.9694 S   0  0  0  0  0  1  0  0  0  0  0  0
    7.5598   -4.5184   16.7826 O   0  0  0  0  0  1  0  0  0  0  0  0
    7.7507   -4.1756   14.4114 C   0  0  0  0  0  2  0  0  0  0  0  0
    6.3630   -1.6002   12.9289 C   0  0  0  0  0  3  0  0  0  0  0  0
    9.0176   -2.5349   15.7689 S   0  0  0  0  0  0  0  0  0  0  0  0
    8.4546   -4.2585   15.7451 C   0  0  2  0  0  0  0  0  0  0  0  0
  1  8  1  0
  1 10  1  0
  3  2  2  0
  5  3  1  0
  5  1  1  0
  8 11  1  0
  9  6  1  0
  9  3  1  0
  9  5  1  0
 10 11  1  0
 11  4  1  6
 11  7  1  0
M  RAD  7   1   2   4   2   5   2   6   2   7   2   8   3   9   2
M  END
$$$$
/tmp/tmp3k30fhzw
     RDKit          3D

 20 20  0  0  1  0  0  0  0  0999 V2000
    0.5395    0.2823   13.3346 C   0  0  0  0  0  1  0  0  0  0  0  0
    2.0090    0.0766   13.6336 C   0  0  0  0  0  3  0  0  0  0  0  0
    4.0184   -2.9096   15.1364 C   0  0  0  0  0  3  0  0  0  0  0  0
    4.6334   -0.9523   12.0894 O   0  0  0  0  0  0  0  0  0  0  0  0
    9.0696   -2.2194   16.2672 C   0  0  0  0  0  1  0  0  0  0  0  0
    5.7992    0.8503   14.8626 O   0  0  0  0  0  1  0  0  0  0  0  0
    7.4947   -0.6771   15.5145 C   0  0  0  0  0  2  0  0  0  0  0  0
    3.6775   -1.7112   14.2286 C   0  0  0  0  0  3  0  0  0  0  0  0
    2.5803   -4.2186   15.2717 Br  0  0  0  0  0  0  0  0  0  0  0  0
    4.1620   -2.0803   12.8378 C   0  0  0  0  0  3  0  0  0  0  0  0
    6.3269   -0.4106   14.5839 C   0  0  0  0  0  3  0  0  0  0  0  0
    5.9150   -3.5727   12.2133 O   0  0  0  0  0  0  0  0  0  0  0  0
    6.3109    0.2618   11.1199 O   0  0  0  0  0  0  0  0  0  0  0  0
    5.1907   -3.1205   13.0847 C   0  0  0  0  0  0  0  0  0  0  0  0
    2.2077   -1.2990   14.2496 C   0  0  0  0  0  2  0  0  0  0  0  0
    5.2138   -3.6005   14.4880 C   0  0  0  0  0  2  0  0  0  0  0  0
    7.9708   -2.0375   15.3374 N   0  0  0  0  0  2  0  0  0  0  0  0
    2.4762    1.1531   14.5942 C   0  0  0  0  0  1  0  0  0  0  0  0
    5.9101   -0.3644   12.1344 C   0  0  0  0  0  0  0  0  0  0  0  0
    6.7685   -0.4564   13.2353 O   0  0  0  0  0  0  0  0  0  0  0  0
  1  2  1  0
  2 15  1  0
  3  9  1  0
  4 19  1  0
  8 15  1  0
  8  3  1  0
 10  4  1  0
 10  8  1  0
 11  7  1  0
 11  6  1  0
 12 14  2  0
 13 19  2  0
 14 10  1  0
 14 16  1  0
 16  3  1  0
 17  5  1  0
 17  7  1  0
 18  2  1  0
 19 20  1  0
 20 11  1  0
M  RAD  8   1   2   2   2   3   2   5   2   6   2   7   3   8   2  10   2
M  RAD  5  11   2  15   3  16   3  17   2  18   2
M  END
$$$$

     RDKit          3D

 16 17  0  0  0  0  0  0  0  0999 V2000
    5.1934   -1.4300   15.6017 C   0  0  0  0  0  3  0  0  0  0  0  0
    5.9095   -0.1172   15.2783 C   0  0  0  0  0  1  0  0  0  0  0  0
    9.0312   -2.8504   13.8523 C   0  0  0  0  0  3  0  0  0  0  0  0
    3.3090    0.0007   16.1661 O   0  0  0  0  0  1  0  0  0  0  0  0
   10.1749   -3.3878   14.4453 C   0  0  0  0  0  3  0  0  0  0  0  0
    3.1557   -1.4479   14.2531 C   0  0  0  0  0  3  0  0  0  0  0  0
    4.2494   -2.1619   13.4718 C   0  0  0  0  0  3  0  0  0  0  0  0
    4.7025   -1.3189   12.4541 O   0  0  0  0  0  1  0  0  0  0  0  0
   10.0641   -4.0350   15.6778 C   0  0  0  0  0  3  0  0  0  0  0  0
    7.7937   -2.9613   14.4897 C   0  0  0  0  0  0  0  0  0  0  0  0
    6.6589   -2.4177   13.8791 O   0  0  0  0  0  0  0  0  0  0  0  0
    5.3620   -2.4451   14.4773 C   0  0  0  0  0  3  0  0  0  0  0  0
    2.0082   -2.2391   14.2879 O   0  0  0  0  0  1  0  0  0  0  0  0
    8.8529   -4.1376   16.2880 N   0  0  0  0  0  0  0  0  0  0  0  0
    7.7272   -3.6206   15.7263 C   0  0  0  0  0  3  0  0  0  0  0  0
    3.6813   -1.2502   15.6663 C   0  0  0  0  0  3  0  0  0  0  0  0
  1  2  1  0
  1 16  1  0
  3 10  2  0
  3  5  1  0
  5  9  2  0
  6 13  1  0
  6 16  1  0
  7  8  1  0
  7  6  1  0
  7 12  1  0
  9 14  1  0
 10 15  1  0
 11 10  1  0
 12 11  1  0
 12  1  1  0
 15 14  2  0
 16  4  1  0
M  RAD  8   1   2   2   2   3   2   4   2   5   2   6   2   7   2   8   2
M  RAD  5   9   2  12   2  13   2  15   2  16   2
M  END
$$$$
/tmp/tmplxq4jins
     RDKit          3D

 20 20  0  0  1  0  0  0  0  0999 V2000
    6.3594   -0.5268   15.0428 C   0  0  0  0  0  3  0  0  0  0  0  0
    7.3918   -2.3722   16.3733 C   0  0  0  0  0  2  0  0  0  0  0  0
    1.0834   -0.6410   13.4280 C   0  0  0  0  0  2  0  0  0  0  0  0
    4.8742   -0.7579   12.9373 C   0  0  0  0  0  2  0  0  0  0  0  0
    5.2942    2.1811   11.3444 O   0  0  0  0  0  0  0  0  0  0  0  0
    2.2433   -0.3381   11.3182 C   0  0  0  0  0  2  0  0  0  0  0  0
    8.7900   -4.2601   15.4301 C   0  0  0  0  0  2  0  0  0  0  0  0
    0.0959   -0.1590   12.3802 C   0  0  0  0  0  2  0  0  0  0  0  0
    6.2747    1.8733   12.0706 C   0  0  0  0  0  0  0  0  0  0  0  0
    0.7606   -0.3664   11.0370 C   0  0  0  0  0  2  0  0  0  0  0  0
    7.5602    1.8993   11.5466 O   0  0  0  0  0  1  0  0  0  0  0  0
    3.5358   -0.2410   13.4495 C   0  0  0  0  0  2  0  0  0  0  0  0
    6.6510   -2.0191   15.0942 C   0  0  0  0  0  2  0  0  0  0  0  0
    6.0528    1.4499   13.4822 C   0  0  0  0  0  2  0  0  0  0  0  0
    7.6926   -3.8633   16.4180 C   0  0  0  0  0  3  0  0  0  0  0  0
    2.3931   -0.9136   12.7117 C   0  0  0  0  0  3  0  0  0  0  0  0
   10.1214   -3.5959   15.7486 C   0  0  0  0  0  1  0  0  0  0  0  0
    8.0589   -4.2543   17.7688 N   0  0  0  0  0  1  0  0  0  0  0  0
    5.2455   -0.1558   16.0140 C   0  0  0  0  0  1  0  0  0  0  0  0
    6.0774   -0.0724   13.6044 C   0  0  0  0  0  3  0  0  0  0  0  0
  1 19  1  0
  4 20  1  0
  4 12  1  0
  5  9  2  0
  6 16  1  0
  7 17  1  0
  7 15  1  0
  8  3  1  0
  9 14  1  0
 10  6  1  0
 10  8  1  0
 11  9  1  0
 13  1  1  0
 13  2  1  0
 15  2  1  0
 15 18  1  0
 16  3  1  0
 16 12  1  0
 20 14  1  0
 20  1  1  0
M  RAD  8   1   2   2   3   3   3   4   3   6   3   7   3   8   3  10   3
M  RAD  8  11   2  12   3  13   3  14   3  15   2  16   2  17   2  18   3
M  RAD  2  19   2  20   2
M  END
$$$$
/tmp/tmpr61njcgt
     RDKit          3D

 20 21  0  0  1  0  0  0  0  0999 V2000
    5.1049   -2.8071   14.2968 O   0  0  0  0  0  0  0  0  0  0  0  0
    9.1924   -2.0261   15.5317 O   0  0  0  0  0  1  0  0  0  0  0  0
    1.6510    0.3363   12.8376 C   0  0  0  0  0  0  0  0  0  0  0  0
    8.5344   -4.2543   15.9470 C   0  0  0  0  0  0  0  0  0  0  0  0
    1.1722   -0.6934   13.8008 C   0  0  0  0  0  2  0  0  0  0  0  0
    1.6296    3.2393   11.7359 N   0  0  0  0  0  1  0  0  0  0  0  0
    5.5198   -1.6365   13.6412 C   0  0  0  0  0  3  0  0  0  0  0  0
    1.2734    2.0371   11.0027 C   0  0  0  0  0  2  0  0  0  0  0  0
    2.9224    0.5474   12.8975 N   0  0  0  0  0  0  0  0  0  0  0  0
    7.4655   -2.9248   14.1209 C   0  0  0  0  0  3  0  0  0  0  0  0
    9.4588   -4.8520   15.3348 O   0  0  0  0  0  0  0  0  0  0  0  0
    5.0611   -0.3599   15.6993 N   0  0  0  0  0  1  0  0  0  0  0  0
    6.1675   -3.7079   14.1409 C   0  0  0  0  0  2  0  0  0  0  0  0
    7.0282   -1.5440   13.7170 C   0  0  0  0  0  2  0  0  0  0  0  0
    4.8709   -0.3967   14.2555 C   0  0  0  0  0  3  0  0  0  0  0  0
    7.8967   -4.8830   17.0521 N   0  0  0  0  0  1  0  0  0  0  0  0
    0.7903    1.0210   11.9255 N   0  0  0  0  0  2  0  0  0  0  0  0
    2.4631   -1.0594   14.4545 C   0  0  0  0  0  3  0  0  0  0  0  0
    8.0955   -2.8912   15.5155 C   0  0  0  0  0  3  0  0  0  0  0  0
    3.4171   -0.3146   13.9090 C   0  0  0  0  0  0  0  0  0  0  0  0
  1 13  1  0
  3  9  2  0
  3  5  1  0
  4 19  1  0
  4 16  1  0
  5 18  1  0
  6  8  1  0
  7 15  1  0
  7  1  1  0
  7 14  1  0
  8 17  1  0
  9 20  1  0
 10 19  1  0
 11  4  2  0
 13 10  1  0
 14 10  1  0
 15 12  1  0
 17  3  1  0
 19  2  1  0
 20 18  2  0
 20 15  1  0
M  RAD  8   2   2   5   3   6   3   7   2   8   3  10   2  12   3  13   3
M  RAD  6  14   3  15   2  16   3  17   2  18   2  19   2
M  END
$$$$
/tmp/tmpi0_jekur
     RDKit          3D

 20 20  0  0  1  0  0  0  0  0999 V2000
    6.9891   -0.0438   15.2925 C   0  0  0  0  0  3  0  0  0  0  0  0
    5.7042   -0.1240   16.0562 C   0  0  0  0  0  0  0  0  0  0  0  0
   -0.0698   -2.8833   14.9460 F   0  0  0  0  0  0  0  0  0  0  0  0
    3.2631   -3.0645   13.5476 C   0  0  0  0  0  2  0  0  0  0  0  0
    1.8126   -3.3842   13.6276 C   0  0  0  0  0  3  0  0  0  0  0  0
    4.4210   -2.8010   15.6146 O   0  0  0  0  0  1  0  0  0  0  0  0
    6.6903   -4.0591   13.4042 C   0  0  0  0  0  1  0  0  0  0  0  0
    2.1949   -1.9382   15.4344 C   0  0  0  0  0  2  0  0  0  0  0  0
    7.8330    0.9021   15.8763 O   0  0  0  0  0  1  0  0  0  0  0  0
    5.7067   -0.4130   17.2429 O   0  0  0  0  0  0  0  0  0  0  0  0
    1.2498   -2.7681   14.6501 C   0  0  0  0  0  0  0  0  0  0  0  0
    7.3825   -3.3702   12.2439 C   0  0  0  0  0  3  0  0  0  0  0  0
    4.4076    0.1647   15.3696 C   0  0  0  0  0  2  0  0  0  0  0  0
    3.5398   -2.1572   14.7443 C   0  0  2  0  0  0  0  0  0  0  0  0
    4.1319   -0.8371   14.2490 C   0  0  0  0  0  2  0  0  0  0  0  0
    8.7599   -3.9635   12.0168 C   0  0  0  0  0  1  0  0  0  0  0  0
    7.6732   -1.4074   15.2596 C   0  0  0  0  0  2  0  0  0  0  0  0
    8.5060   -1.6256   13.9969 C   0  0  0  0  0  3  0  0  0  0  0  0
    9.6511   -0.6346   13.8945 C   0  0  0  0  0  1  0  0  0  0  0  0
    7.4710   -1.5622   12.4931 S   0  0  0  0  0  0  0  0  0  0  0  0
  1  9  1  0
  1  2  1  0
  1 17  1  0
  2 10  2  0
  4 14  1  0
  5  4  1  0
  5 11  2  0
 11  3  1  0
 11  8  1  0
 12  7  1  0
 13  2  1  0
 14  6  1  1
 14  8  1  0
 14 15  1  0
 15 13  1  0
 16 12  1  0
 18 19  1  0
 18 20  1  0
 18 17  1  0
 20 12  1  0
M  RAD  8   1   2   4   3   5   2   6   2   7   2   8   3   9   2  12   2
M  RAD  6  13   3  15   3  16   2  17   3  18   2  19   2
M  END
$$$$
/tmp/tmp01eua0vt
     RDKit          3D

 20 22  0  0  1  0  0  0  0  0999 V2000
    4.7211    1.6270   14.8832 N   0  0  0  0  0  2  0  0  0  0  0  0
    5.0247   -2.1905   14.8094 C   0  0  0  0  0  3  0  0  0  0  0  0
    9.7569   -4.4542   11.5616 N   0  0  0  0  0  1  0  0  0  0  0  0
    7.3214   -3.5243   15.1900 C   0  0  0  0  0  3  0  0  0  0  0  0
    5.3422   -0.1927   13.3333 C   0  0  0  0  0  2  0  0  0  0  0  0
    0.3532    0.6099   14.0777 S   0  0  0  0  0  0  0  0  0  0  0  0
    7.3889   -2.8525   13.8197 C   0  0  0  0  0  3  0  0  0  0  0  0
    7.9340   -3.8390   12.7993 C   0  0  0  0  0  2  0  0  0  0  0  0
    5.5434   -0.7518   14.7391 C   0  0  0  0  0  3  0  0  0  0  0  0
    7.6030   -2.4874   16.2648 C   0  0  0  0  0  1  0  0  0  0  0  0
    3.7543    1.9941   15.9163 C   0  0  0  0  0  2  0  0  0  0  0  0
    5.4921   -4.4465   13.8611 O   0  0  0  0  0  1  0  0  0  0  0  0
    6.0395   -3.2763   14.3946 C   0  0  2  0  0  0  0  0  0  0  0  0
    4.4911   -2.4731   16.1321 N   0  0  0  0  0  1  0  0  0  0  0  0
    9.3141   -3.5091   12.4947 N   0  0  0  0  0  2  0  0  0  0  0  0
    4.4390    0.2566   14.4560 C   0  0  1  0  0  0  0  0  0  0  0  0
    2.1019    1.0868   14.1740 C   0  0  0  0  0  3  0  0  0  0  0  0
   -0.0985    2.1214   13.1796 C   0  0  0  0  0  1  0  0  0  0  0  0
    2.3246    2.0436   15.3551 C   0  0  0  0  0  2  0  0  0  0  0  0
    2.9733   -0.1599   14.2774 C   0  0  0  0  0  2  0  0  0  0  0  0
  2 14  1  0
  4 13  1  0
  4 10  1  0
 16  5  1  6
  5  9  1  0
  6 18  1  0
  7  8  1  0
  7  4  1  0
  7 13  1  0
  9  2  1  0
 11  1  1  0
 13  2  1  0
 13 12  1  6
 15  3  1  0
 15  8  1  0
 16 20  1  0
 16  1  1  0
 16  9  1  0
 17  6  1  0
 17 19  1  0
 19 11  1  0
 20 17  1  0
M  RAD  8   1   2   2   2   3   3   4   2   5   3   7   2   8   3   9   2
M  RAD  8  10   2  11   3  12   2  14   3  15   2  17   2  18   2  19   3
M  RAD  1  20   3
M  END
$$$$

     RDKit          3D

 15 15  0  0  0  0  0  0  0  0999 V2000
    3.9371   -2.7377   14.4007 C   0  0  1  0  0  0  0  0  0  0  0  0
    4.5081   -0.1470   14.6194 S   0  0  2  0  0  0  0  0  0  0  0  0
    5.1255    0.8218   13.6514 O   0  0  0  0  0  0  0  0  0  0  0  0
    5.8298   -2.6752   11.8984 O   0  0  0  0  0  0  0  0  0  0  0  0
    3.2121   -4.3805   16.1888 C   0  0  0  0  0  1  0  0  0  0  0  0
    6.5192   -3.2126   14.0348 C   0  0  0  0  0  3  0  0  0  0  0  0
    5.3998   -2.6671   14.9455 C   0  0  0  0  0  3  0  0  0  0  0  0
    3.7787   -3.7353   13.4348 O   0  0  0  0  0  1  0  0  0  0  0  0
    6.6059   -0.8766   15.9735 O   0  0  0  0  0  0  0  0  0  0  0  0
    3.7127    0.5565   15.6822 O   0  0  0  0  0  0  0  0  0  0  0  0
    6.4595   -4.7212   13.8522 C   0  0  0  0  0  1  0  0  0  0  0  0
    5.6658   -1.2401   15.2857 C   0  0  0  0  0  0  0  0  0  0  0  0
    6.6302   -2.5175   12.7702 N   0  0  0  0  0  0  0  0  0  0  0  0
    2.9772   -3.0156   15.5589 C   0  0  0  0  0  2  0  0  0  0  0  0
    3.5483   -1.3828   13.7894 C   0  0  0  0  0  2  0  0  0  0  0  0
  1  8  1  6
  1  7  1  0
  1 14  1  0
  2 12  1  0
  2 10  2  0
  3  2  2  0
  4 13  2  0
  6 11  1  0
  7  6  1  0
  7 12  1  0
 12  9  2  0
 13  6  1  0
 14  5  1  0
 15  1  1  0
  2 15  1  6
M  RAD  7   5   2   6   2   7   2   8   2  11   2  14   3  15   3
M  END
$$$$

     RDKit          3D

 12 11  0  0  0  0  0  0  0  0999 V2000
    7.8282    1.1713   12.1232 C   0  0  0  0  0  1  0  0  0  0  0  0
    7.4427   -2.1929   14.9524 C   0  0  0  0  0  3  0  0  0  0  0  0
   10.4896   -2.6062   15.3371 C   0  0  0  0  0  1  0  0  0  0  0  0
    6.3371    1.3904   12.2989 C   0  0  0  0  0  3  0  0  0  0  0  0
    6.2508   -2.0420   15.4319 N   0  0  0  0  0  0  0  0  0  0  0  0
    5.7251    0.2363   13.0719 C   0  0  0  0  0  2  0  0  0  0  0  0
    5.5088   -0.8266   15.2875 C   0  0  0  0  0  0  0  0  0  0  0  0
    5.6858    1.4790   10.9351 C   0  0  0  0  0  1  0  0  0  0  0  0
    4.3499   -0.7518   15.7722 O   0  0  0  0  0  0  0  0  0  0  0  0
    6.0647    0.3479   14.5481 C   0  0  0  0  0  2  0  0  0  0  0  0
    8.1627   -3.4829   15.1364 C   0  0  0  0  0  2  0  0  0  0  0  0
    9.5336   -3.4215   14.4862 C   0  0  0  0  0  2  0  0  0  0  0  0
  2  5  2  0
  4  1  1  0
  4  6  1  0
  6 10  1  0
  7  5  1  0
  7  9  2  0
  8  4  1  0
 10  7  1  0
 11  2  1  0
 12  3  1  0
 12 11  1  0
M  RAD  8   1   2   2   2   3   2   4   2   6   3   8   2  10   3  11   3
M  RAD  1  12   3
M  END
$$$$
/tmp/tmpsgn_mvlg
     RDKit          3D

 20 20  0  0  1  0  0  0  0  0999 V2000
    6.2357    1.0284   12.9061 O   0  0  0  0  0  1  0  0  0  0  0  0
    4.9418   -2.3799   15.5629 N   0  0  0  0  0  0  0  0  0  0  0  0
    5.5640   -0.0515   13.4809 C   0  0  0  0  0  3  0  0  0  0  0  0
    6.4809   -0.7338   14.5010 C   0  0  0  0  0  3  0  0  0  0  0  0
    2.5482   -0.2342   12.4139 O   0  0  0  0  0  1  0  0  0  0  0  0
    6.1632   -2.2193   14.7469 C   0  0  2  0  0  0  0  0  0  0  0  0
    1.4295   -2.3969   14.8321 O   0  0  0  0  0  0  0  0  0  0  0  0
    4.2579    0.4276   14.1037 C   0  0  0  0  0  2  0  0  0  0  0  0
    8.3121   -3.3484   14.7635 O   0  0  0  0  0  0  0  0  0  0  0  0
    9.4596   -2.6569   15.1542 C   0  0  0  0  0  1  0  0  0  0  0  0
    2.4949   -2.1754   15.3821 C   0  0  0  0  0  0  0  0  0  0  0  0
    6.0616   -2.8949   13.5173 O   0  0  0  0  0  1  0  0  0  0  0  0
    5.1771   -3.5122   16.4597 C   0  0  0  0  0  2  0  0  0  0  0  0
    3.7591   -2.6955   14.7572 C   0  0  0  0  0  2  0  0  0  0  0  0
    2.5049   -1.3888   16.6530 C   0  0  0  0  0  1  0  0  0  0  0  0
    3.2686    0.7712   13.0447 C   0  0  0  0  0  0  0  0  0  0  0  0
    7.2912   -2.8305   15.5672 C   0  0  0  0  0  3  0  0  0  0  0  0
    6.5454   -0.0122   15.6989 O   0  0  0  0  0  1  0  0  0  0  0  0
    3.1048    1.9707   12.7021 O   0  0  0  0  0  0  0  0  0  0  0  0
    6.6314   -3.9275   16.3566 C   0  0  0  0  0  2  0  0  0  0  0  0
  2 13  1  0
  3  1  1  0
  3  8  1  0
  3  4  1  0
  4 18  1  0
  5 16  1  0
  6 12  1  6
  6  4  1  0
  6  2  1  0
  6 17  1  0
  7 11  2  0
  9 10  1  0
 11 15  1  0
 14 11  1  0
 14  2  1  0
 16  8  1  0
 17  9  1  0
 17 20  1  0
 19 16  2  0
 20 13  1  0
M  RAD  8   1   2   3   2   4   2   5   2   8   3  10   2  12   2  13   3
M  RAD  5  14   3  15   2  17   2  18   2  20   3
M  END
$$$$

     RDKit          3D

 10 10  0  0  0  0  0  0  0  0999 V2000
    4.3856    0.7976   13.5903 C   0  0  0  0  0  3  0  0  0  0  0  0
    3.4628    2.2020   12.0892 O   0  0  0  0  0  1  0  0  0  0  0  0
    4.7536   -0.5192   13.8201 C   0  0  0  0  0  0  0  0  0  0  0  0
    3.7613    0.8960   12.2829 N   0  0  0  0  0  2  0  0  0  0  0  0
    5.7538    0.5759   13.4414 N   0  0  0  0  0  2  0  0  0  0  0  0
    1.5981   -5.6885   13.7632 C   0  0  0  0  0  1  0  0  0  0  0  0
    2.8583   -5.0562   14.3148 C   0  0  0  0  0  2  0  0  0  0  0  0
    4.4709   -1.7595   14.1021 C   0  0  0  0  0  0  0  0  0  0  0  0
    4.1878   -2.9993   14.3835 C   0  0  0  0  0  3  0  0  0  0  0  0
    2.9508   -3.6207   13.8424 C   0  0  0  0  0  2  0  0  0  0  0  0
  1  4  1  0
  1  5  1  0
  1  3  1  0
  3  8  2  0
  4  2  1  0
  5  3  1  0
  6  7  1  0
  8  9  2  0
 10  9  1  0
 10  7  1  0
M  RAD  8   1   2   2   2   4   2   5   2   6   2   7   3   9   2  10   3
M  END
$$$$

     RDKit          3D

  8  8  0  0  0  0  0  0  0  0999 V2000
    5.7808   -0.6904   16.1307 C   0  0  0  0  0  3  0  0  0  0  0  0
    5.1820    0.0834   17.1234 O   0  0  0  0  0  1  0  0  0  0  0  0
    4.7006   -1.2662   15.2324 C   0  0  0  0  0  3  0  0  0  0  0  0
    5.1895   -2.7486   13.4257 O   0  0  0  0  0  0  0  0  0  0  0  0
    6.3986   -0.8030   11.8401 N   0  0  0  0  0  1  0  0  0  0  0  0
    5.2734   -1.5787   13.8881 C   0  0  0  0  0  0  0  0  0  0  0  0
    5.3529   -2.1316   16.2940 C   0  0  0  0  0  2  0  0  0  0  0  0
    5.8712   -0.5410   13.1107 N   0  0  0  0  0  2  0  0  0  0  0  0
  1  2  1  0
  1  7  1  0
  3  6  1  0
  3  1  1  0
  3  7  1  0
  4  6  2  0
  5  8  1  0
  8  6  1  0
M  RAD  6   1   2   2   2   3   2   5   3   7   3   8   2
M  END
$$$$

     RDKit          3D

 12 13  0  0  0  0  0  0  0  0999 V2000
    2.1939    0.4879   12.8922 C   0  0  0  0  0  3  0  0  0  0  0  0
    1.2244    1.0965   10.7201 C   0  0  0  0  0  2  0  0  0  0  0  0
    3.9443    0.8417   12.5929 S   0  0  0  0  0  0  0  0  0  0  0  0
    1.4954    0.1513   11.6168 C   0  0  0  0  0  3  0  0  0  0  0  0
    2.1367   -0.6947   13.8341 C   0  0  0  0  0  2  0  0  0  0  0  0
    5.2592   -1.8737   15.8200 C   0  0  0  0  0  2  0  0  0  0  0  0
    3.0588   -2.8146   15.6835 O   0  0  0  0  0  1  0  0  0  0  0  0
    5.7186    0.1044   14.5570 C   0  0  0  0  0  2  0  0  0  0  0  0
    5.8540   -0.5328   15.8612 N   0  0  0  0  0  2  0  0  0  0  0  0
    4.2605    0.4972   14.3426 C   0  0  0  0  0  3  0  0  0  0  0  0
    3.2736   -0.5729   14.8384 C   0  0  0  0  0  3  0  0  0  0  0  0
    3.9355   -1.9433   15.0362 C   0  0  0  0  0  3  0  0  0  0  0  0
  1  4  1  0
  1  5  1  0
  2  4  2  0
  3  1  1  0
  3 10  1  0
  6  9  1  0
  8  9  1  0
 10 11  1  0
 10  8  1  0
 11  5  1  0
 11 12  1  0
 12  7  1  0
 12  6  1  0
M  RAD  8   1   2   2   3   4   2   5   3   6   3   7   2   8   3   9   2
M  RAD  3  10   2  11   2  12   2
M  END
$$$$
/tmp/tmp15s95u1q
     RDKit          3D

 20 19  0  0  1  0  0  0  0  0999 V2000
    3.7809   -3.2371   14.0894 C   0  0  0  0  0  3  0  0  0  0  0  0
    2.6191   -2.4727   14.2457 O   0  0  0  0  0  0  0  0  0  0  0  0
    1.9566    2.5575   12.8555 C   0  0  0  0  0  1  0  0  0  0  0  0
    5.6011    1.5099   15.2558 C   0  0  0  0  0  1  0  0  0  0  0  0
    2.9250   -5.0796   15.6320 C   0  0  0  0  0  3  0  0  0  0  0  0
    4.8676   -2.7748   15.0628 C   0  0  0  0  0  3  0  0  0  0  0  0
    0.9320    1.5873   12.2986 C   0  0  0  0  0  2  0  0  0  0  0  0
    6.0264   -3.5316   14.8766 O   0  0  0  0  0  1  0  0  0  0  0  0
    2.4071   -1.8811   12.9991 C   0  0  0  0  0  2  0  0  0  0  0  0
    7.1663    0.3280   13.0888 O   0  0  0  0  0  0  0  0  0  0  0  0
    3.1858   -6.5441   15.9133 C   0  0  0  0  0  1  0  0  0  0  0  0
    1.4313   -4.8248   15.6917 C   0  0  0  0  0  1  0  0  0  0  0  0
    6.6240    0.3865   15.4312 C   0  0  0  0  0  3  0  0  0  0  0  0
    1.5388    0.2328   12.1298 C   0  0  0  0  0  3  0  0  0  0  0  0
    3.4667   -4.7290   14.2512 C   0  0  0  0  0  2  0  0  0  0  0  0
    6.0554   -0.8420   15.8400 O   0  0  0  0  0  0  0  0  0  0  0  0
    1.7951   -0.5358   13.1864 C   0  0  0  0  0  3  0  0  0  0  0  0
    8.9152   -0.0114   14.5254 O   0  0  0  0  0  1  0  0  0  0  0  0
    5.1875   -1.3064   14.8347 C   0  0  0  0  0  2  0  0  0  0  0  0
    7.5761    0.2495   14.2780 C   0  0  0  0  0  0  0  0  0  0  0  0
  1 15  1  0
  1  2  1  0
  1  6  1  0
  5 12  1  0
  6  8  1  0
  6 19  1  0
  7  3  1  0
  7 14  1  0
  9  2  1  0
 10 20  2  0
 11  5  1  0
 13  4  1  0
 13 16  1  0
 14 17  2  0
 15  5  1  0
 16 19  1  0
 17  9  1  0
 20 18  1  0
 20 13  1  0
M  RAD  8   1   2   3   2   4   2   5   2   6   2   7   3   8   2   9   3
M  RAD  8  11   2  12   2  13   2  14   2  15   3  17   2  18   2  19   3
M  END
$$$$
/tmp/tmpk8sb9yhb
     RDKit          3D

 20 20  0  0  1  0  0  0  0  0999 V2000
    2.1700    1.7935   12.3024 C   0  0  0  0  0  2  0  0  0  0  0  0
    6.5313    1.8212   12.9462 C   0  0  0  0  0  1  0  0  0  0  0  0
    5.6358   -2.2863   16.6877 C   0  0  0  0  0  2  0  0  0  0  0  0
    3.2265   -0.2553   13.1903 C   0  0  0  0  0  2  0  0  0  0  0  0
    6.6886   -2.6557   12.2672 O   0  0  0  0  0  1  0  0  0  0  0  0
    7.7724    0.9151   11.0107 C   0  0  0  0  0  1  0  0  0  0  0  0
    4.4145   -2.3440   13.9996 C   0  0  0  0  0  3  0  0  0  0  0  0
    8.5536   -3.5249   14.7679 C   0  0  0  0  0  1  0  0  0  0  0  0
    3.5746   -2.4145   15.2781 C   0  0  0  0  0  2  0  0  0  0  0  0
    7.0922   -3.6286   15.1565 C   0  0  0  0  0  2  0  0  0  0  0  0
    6.6590   -1.4772   13.0171 C   0  0  0  0  0  3  0  0  0  0  0  0
    5.7628   -1.6289   14.2573 C   0  0  0  0  0  3  0  0  0  0  0  0
    6.2158   -0.4209   12.2161 O   0  0  0  0  0  0  0  0  0  0  0  0
    6.5285   -2.2400   15.4480 C   0  0  0  0  0  3  0  0  0  0  0  0
    4.3541   -3.0685   16.4114 C   0  0  0  0  0  3  0  0  0  0  0  0
    7.1781    0.5804   12.3638 C   0  0  0  0  0  3  0  0  0  0  0  0
    1.4576    2.4012   11.1129 C   0  0  0  0  0  1  0  0  0  0  0  0
    3.6002   -1.6972   12.8770 C   0  0  0  0  0  2  0  0  0  0  0  0
    2.5066    0.3482   12.0040 C   0  0  0  0  0  2  0  0  0  0  0  0
    3.5000   -3.0955   17.6607 C   0  0  0  0  0  1  0  0  0  0  0  0
  1 17  1  0
  1 19  1  0
  6 16  1  0
  7 18  1  0
  7 12  1  0
  7  9  1  0
  9 15  1  0
 10  8  1  0
 11  5  1  0
 12 11  1  0
 12 14  1  0
 13 11  1  0
 14 10  1  0
 14  3  1  0
 15  3  1  0
 15 20  1  0
 16 13  1  0
 16  2  1  0
 18  4  1  0
 19  4  1  0
M  RAD  8   1   3   2   2   3   3   4   3   5   2   6   2   7   2   8   2
M  RAD  8   9   3  10   3  11   2  12   2  14   2  15   2  16   2  17   2
M  RAD  3  18   3  19   3  20   2
M  END
$$$$
/tmp/tmpa8b9a2rv
     RDKit          3D

 20 21  0  0  1  0  0  0  0  0999 V2000
    4.6913   -2.1793   13.7094 C   0  0  0  0  0  3  0  0  0  0  0  0
    2.8699   -0.5884   13.4678 N   0  0  0  0  0  2  0  0  0  0  0  0
    6.5804    0.1487   12.9315 C   0  0  0  0  0  3  0  0  0  0  0  0
    2.6588    1.7195   13.8090 O   0  0  0  0  0  0  0  0  0  0  0  0
    4.2995   -2.4271   16.2268 C   0  0  0  0  0  3  0  0  0  0  0  0
    8.5255    1.4371   12.4301 O   0  0  0  0  0  1  0  0  0  0  0  0
    5.0678    0.1316   12.7074 C   0  0  0  0  0  2  0  0  0  0  0  0
    7.1989    1.2213   12.0554 C   0  0  0  0  0  2  0  0  0  0  0  0
    2.1120    0.6256   13.5075 C   0  0  0  0  0  0  0  0  0  0  0  0
    4.2998   -0.6878   13.7614 C   0  0  2  0  0  0  0  0  0  0  0  0
    7.1829   -1.2064   12.5893 C   0  0  0  0  0  2  0  0  0  0  0  0
    4.3862   -0.9230   16.2890 C   0  0  0  0  0  0  0  0  0  0  0  0
    0.6611    0.5937   13.1897 C   0  0  0  0  0  1  0  0  0  0  0  0
    7.1540   -2.2185   15.2597 O   0  0  0  0  0  1  0  0  0  0  0  0
    4.4314   -0.3447   17.4069 O   0  0  0  0  0  0  0  0  0  0  0  0
    3.9936   -2.9632   14.8247 C   0  0  0  0  0  2  0  0  0  0  0  0
    4.5523   -0.1477   15.0973 N   0  0  0  0  0  2  0  0  0  0  0  0
    3.2583   -2.9542   17.1967 C   0  0  0  0  0  1  0  0  0  0  0  0
    6.8265   -3.8363   13.2222 O   0  0  0  0  0  0  0  0  0  0  0  0
    6.5000   -2.4459   13.7162 P   0  0  1  0  0  0  0  0  0  0  0  0
  1 10  1  0
  1 16  1  0
  3  8  1  0
  4  9  2  0
  5 12  1  0
  5 18  1  0
  7  3  1  0
  7 10  1  0
  8  6  1  0
  9 13  1  0
  9  2  1  0
 10  2  1  6
 10 17  1  0
 11 20  1  0
 11  3  1  0
 12 15  2  0
 16  5  1  0
 17 12  1  0
 20 19  2  0
 20  1  1  0
 20 14  1  0
M  RAD  8   1   2   2   2   3   2   5   2   6   2   7   3   8   3  11   3
M  RAD  5  13   2  14   2  16   3  17   2  18   2
M  END
$$$$
/tmp/tmpyd_cbz3m
     RDKit          3D

 20 21  0  0  1  0  0  0  0  0999 V2000
    6.1415   -0.9543   14.5621 C   0  0  0  0  0  3  0  0  0  0  0  0
    3.8425   -2.4059   13.1102 C   0  0  0  0  0  3  0  0  0  0  0  0
    4.6996   -3.5741   15.0424 O   0  0  0  0  0  0  0  0  0  0  0  0
    5.9149    1.3608   13.6829 C   0  0  0  0  0  2  0  0  0  0  0  0
   10.2835   -2.5868   15.7153 O   0  0  0  0  0  1  0  0  0  0  0  0
    4.7811   -1.1242   16.5558 O   0  0  0  0  0  1  0  0  0  0  0  0
    6.5851    0.4936   14.7324 C   0  0  0  0  0  3  0  0  0  0  0  0
    1.3974   -4.3854   15.8534 O   0  0  0  0  0  1  0  0  0  0  0  0
    2.5846   -3.6899   16.0763 C   0  0  0  0  0  3  0  0  0  0  0  0
    7.1585   -1.9020   15.1911 C   0  0  0  0  0  2  0  0  0  0  0  0
    2.6074   -2.4446   15.2517 C   0  0  0  0  0  2  0  0  0  0  0  0
    3.3159   -1.1929   12.6587 O   0  0  0  0  0  1  0  0  0  0  0  0
    9.2029   -4.3084   14.6554 O   0  0  0  0  0  0  0  0  0  0  0  0
    4.7385   -1.1529   15.1564 C   0  0  0  0  0  3  0  0  0  0  0  0
    4.0017   -2.4119   14.6427 C   0  0  2  0  0  0  0  0  0  0  0  0
    7.3561    0.9383   13.5043 C   0  0  0  0  0  2  0  0  0  0  0  0
    8.3232   -2.1345   14.2467 C   0  0  0  0  0  2  0  0  0  0  0  0
    3.7458   -4.4772   15.5390 C   0  0  0  0  0  2  0  0  0  0  0  0
    9.2954   -3.0718   14.8691 C   0  0  0  0  0  0  0  0  0  0  0  0
    5.0556   -2.6617   12.4671 O   0  0  0  0  0  1  0  0  0  0  0  0
  1 10  1  0
  1 14  1  0
  3 18  1  0
  4  7  1  0
  7  1  1  0
  9  8  1  0
  9 11  1  0
 12  2  1  0
 13 19  2  0
 14  6  1  0
 15  2  1  6
 15  3  1  0
 15 14  1  0
 15 11  1  0
 16  4  1  0
 16  7  1  0
 17 19  1  0
 17 10  1  0
 18  9  1  0
 19  5  1  0
 20  2  1  0
M  RAD  8   1   2   2   2   4   3   5   2   6   2   7   2   8   2   9   2
M  RAD  8  10   3  11   3  12   2  14   2  16   3  17   3  18   3  20   2
M  END
$$$$

     RDKit          3D

  9  8  0  0  0  0  0  0  0  0999 V2000
    3.9069   -0.5654   14.4164 O   0  0  0  0  0  0  0  0  0  0  0  0
    4.5785   -2.7595   14.8718 N   0  0  0  0  0  2  0  0  0  0  0  0
    3.0015   -1.5355   16.3181 N   0  0  0  0  0  1  0  0  0  0  0  0
    7.2926   -1.8366   12.6637 O   0  0  0  0  0  0  0  0  0  0  0  0
    5.5987   -2.8269   13.9064 N   0  0  0  0  0  2  0  0  0  0  0  0
    3.8474   -1.5682   15.1754 C   0  0  0  0  0  0  0  0  0  0  0  0
    6.8688   -0.7850   14.7543 C   0  0  0  0  0  2  0  0  0  0  0  0
    6.7944    0.4939   14.2020 O   0  0  0  0  0  1  0  0  0  0  0  0
    6.5873   -1.8107   13.7060 C   0  0  0  0  0  0  0  0  0  0  0  0
  1  6  2  0
  2  6  1  0
  4  9  2  0
  5  2  1  0
  6  3  1  0
  7  9  1  0
  8  7  1  0
  9  5  1  0
M  RAD  5   2   2   3   3   5   2   7   3   8   2
M  END
$$$$
/tmp/tmp4mop02d9
     RDKit          3D

 20 19  0  0  1  0  0  0  0  0999 V2000
    2.4311   -1.6137   15.6278 O   0  0  0  0  0  0  0  0  0  0  0  0
    1.9890   -1.9062   14.3346 C   0  0  0  0  0  3  0  0  0  0  0  0
    4.2533    0.4252   15.2697 O   0  0  0  0  0  1  0  0  0  0  0  0
    7.7393   -0.0449   12.7627 C   0  0  0  0  0  0  0  0  0  0  0  0
    4.6252   -0.7037   16.0111 C   0  0  0  0  0  3  0  0  0  0  0  0
    8.8383   -0.4320   12.2883 O   0  0  0  0  0  0  0  0  0  0  0  0
    1.5420   -0.6237   13.6479 C   0  0  0  0  0  2  0  0  0  0  0  0
    0.8349   -2.8890   14.4096 C   0  0  0  0  0  1  0  0  0  0  0  0
    0.5214   -1.4394   11.5187 C   0  0  0  0  0  1  0  0  0  0  0  0
    4.0459   -3.0568   16.6133 C   0  0  0  0  0  1  0  0  0  0  0  0
    7.8427   -3.0562   15.0758 O   0  0  0  0  0  1  0  0  0  0  0  0
    6.7436    0.4186   11.9111 O   0  0  0  0  0  1  0  0  0  0  0  0
    7.5086   -0.0948   14.2377 C   0  0  0  0  0  3  0  0  0  0  0  0
    1.7063   -0.7245   12.1399 C   0  0  0  0  0  2  0  0  0  0  0  0
    6.0178   -0.9422   15.9356 O   0  0  0  0  0  0  0  0  0  0  0  0
    3.7930   -1.9314   15.6263 C   0  0  0  0  0  3  0  0  0  0  0  0
    6.8231   -2.4859   14.3241 C   0  0  0  0  0  0  0  0  0  0  0  0
    6.2646   -3.1551   13.4169 O   0  0  0  0  0  0  0  0  0  0  0  0
    7.1907    1.1850   14.6967 O   0  0  0  0  0  1  0  0  0  0  0  0
    6.3884   -1.0783   14.5833 C   0  0  0  0  0  3  0  0  0  0  0  0
  1 16  1  0
  2  8  1  0
  2  1  1  0
  4 13  1  0
  5  3  1  0
  6  4  2  0
  7  2  1  0
 12  4  1  0
 13 19  1  0
 13 20  1  0
 14  9  1  0
 14  7  1  0
 15  5  1  0
 16 10  1  0
 16  5  1  0
 17 11  1  0
 18 17  2  0
 20 17  1  0
 20 15  1  0
M  RAD  8   2   2   3   2   5   2   7   3   8   2   9   2  10   2  11   2
M  RAD  6  12   2  13   2  14   3  16   2  19   2  20   2
M  END
$$$$
/tmp/tmpa4ml9h04
     RDKit          3D

 20 22  0  0  1  0  0  0  0  0999 V2000
    6.9921   -1.4008   12.0560 C   0  0  0  0  0  3  0  0  0  0  0  0
    4.7334   -2.4736   14.5417 C   0  0  0  0  0  3  0  0  0  0  0  0
    4.5194   -4.6463   15.5490 O   0  0  0  0  0  1  0  0  0  0  0  0
    6.8024   -2.3113   13.2303 C   0  0  0  0  0  3  0  0  0  0  0  0
    5.0104    0.4029   15.9584 O   0  0  0  0  0  1  0  0  0  0  0  0
    5.4579   -3.0718   13.3282 C   0  0  0  0  0  3  0  0  0  0  0  0
    6.7511   -1.3420   14.3538 C   0  0  0  0  0  0  0  0  0  0  0  0
    5.9303   -0.8816   17.5838 O   0  0  0  0  0  1  0  0  0  0  0  0
    4.6773   -2.9106   12.1808 O   0  0  0  0  0  1  0  0  0  0  0  0
    2.1063   -4.8256   14.3784 O   0  0  0  0  0  1  0  0  0  0  0  0
    5.7948   -1.8130   15.3808 C   0  0  0  0  0  3  0  0  0  0  0  0
    3.7661   -2.7780   16.8363 C   0  0  0  0  0  2  0  0  0  0  0  0
    3.8214   -1.3591   16.7900 O   0  0  0  0  0  0  0  0  0  0  0  0
    1.7607   -2.5850   14.6882 O   0  0  0  0  0  0  0  0  0  0  0  0
    2.5278   -3.5762   14.8189 C   0  0  0  0  0  0  0  0  0  0  0  0
    7.2830    1.0242   11.6209 C   0  0  0  0  0  1  0  0  0  0  0  0
    5.1291   -0.9009   16.4413 C   0  0  2  0  0  0  0  0  0  0  0  0
    3.8911   -3.4035   15.4249 C   0  0  1  0  0  0  0  0  0  0  0  0
    6.8777   -0.0908   13.9349 C   0  0  0  0  0  3  0  0  0  0  0  0
    7.1107   -0.1597   12.5024 C   0  0  0  0  0  0  0  0  0  0  0  0
  1 20  2  0
  1  4  1  0
  2 18  1  0
  2 11  1  0
 18  3  1  1
  4  6  1  0
  4  7  1  0
 17  5  1  6
  6  2  1  0
  7 11  1  0
  9  6  1  0
 11 17  1  0
 12 13  1  0
 14 15  2  0
 15 10  1  0
 16 20  1  0
 17 13  1  0
 17  8  1  0
 18 15  1  0
 18 12  1  0
 19  7  2  0
 20 19  1  0
M  RAD  8   1   2   2   2   3   2   4   2   5   2   6   2   8   2   9   2
M  RAD  5  10   2  11   2  12   3  16   2  19   2
M  END
$$$$
/tmp/tmpycdg6tlx
     RDKit          3D

 20 20  0  0  1  0  0  0  0  0999 V2000
    4.7015   -1.6997   15.3277 C   0  0  0  0  0  3  0  0  0  0  0  0
    2.9598   -2.3671   12.1332 C   0  0  0  0  0  2  0  0  0  0  0  0
    2.0763   -1.5953   12.9964 C   0  0  0  0  0  3  0  0  0  0  0  0
    3.5313   -1.5321   13.1997 N   0  0  0  0  0  0  0  0  0  0  0  0
    7.3866   -3.1387   15.1211 C   0  0  0  0  0  2  0  0  0  0  0  0
    1.6314   -0.3660   12.2887 C   0  0  0  0  0  3  0  0  0  0  0  0
    9.4779   -1.8484   15.5051 C   0  0  0  0  0  1  0  0  0  0  0  0
    0.7583    2.0751   10.8508 C   0  0  0  0  0  1  0  0  0  0  0  0
    0.0466    2.7452   13.0144 O   0  0  0  0  0  0  0  0  0  0  0  0
    9.8505   -4.9415   15.8590 C   0  0  0  0  0  1  0  0  0  0  0  0
    6.1491   -3.7390   15.7868 C   0  0  0  0  0  2  0  0  0  0  0  0
    5.8491   -1.9999   17.4208 O   0  0  0  0  0  1  0  0  0  0  0  0
    9.1114   -3.9743   16.7261 C   0  0  0  0  0  0  0  0  0  0  0  0
    8.4487   -2.7604   16.1454 C   0  0  0  0  0  3  0  0  0  0  0  0
    1.0482    0.6166   12.9644 C   0  0  0  0  0  3  0  0  0  0  0  0
    3.9544   -0.6918   15.9417 O   0  0  0  0  0  1  0  0  0  0  0  0
    0.5918    1.8517   12.3164 C   0  0  0  0  0  0  0  0  0  0  0  0
    5.2126   -2.6822   16.3812 C   0  0  0  0  0  3  0  0  0  0  0  0
    3.8307   -2.4197   14.3095 C   0  0  0  0  0  2  0  0  0  0  0  0
    9.0469   -4.1754   17.9274 O   0  0  0  0  0  0  0  0  0  0  0  0
  1 16  1  0
  1 18  1  0
  2  4  1  0
  3  6  1  0
  3  2  1  0
  3  4  1  0
  4 19  1  0
  5 14  1  0
  5 11  1  0
  8 17  1  0
 10 13  1  0
 11 18  1  0
 13 20  2  0
 14  7  1  0
 14 13  1  0
 15  6  2  0
 17  9  2  0
 17 15  1  0
 18 12  1  0
 19  1  1  0
M  RAD  8   1   2   2   3   3   2   5   3   6   2   7   2   8   2  10   2
M  RAD  7  11   3  12   2  14   2  15   2  16   2  18   2  19   3
M  END
$$$$
/tmp/tmpahre54ia
     RDKit          3D

 20 21  0  0  1  0  0  0  0  0999 V2000
    3.1393   -4.2304   15.8787 C   0  0  1  0  0  0  0  0  0  0  0  0
    6.8498   -4.1234   15.1481 C   0  0  0  0  0  2  0  0  0  0  0  0
    4.7307   -0.0731   16.7299 O   0  0  0  0  0  1  0  0  0  0  0  0
    2.6305   -2.8406   16.2595 C   0  0  0  0  0  2  0  0  0  0  0  0
    5.5476   -1.9041   15.4061 C   0  0  0  0  0  3  0  0  0  0  0  0
    4.3257   -1.2334   16.0704 C   0  0  0  0  0  3  0  0  0  0  0  0
    9.2430   -4.4183   15.6991 C   0  0  0  0  0  1  0  0  0  0  0  0
    4.3360   -4.1667   14.9237 C   0  0  0  0  0  3  0  0  0  0  0  0
    3.4973   -4.9213   17.0236 F   0  0  0  0  0  0  0  0  0  0  0  0
    7.1809    0.6629   14.2722 C   0  0  0  0  0  2  0  0  0  0  0  0
    5.5431   -3.4514   15.5442 C   0  0  0  0  0  3  0  0  0  0  0  0
    5.7186   -1.3959   13.9565 C   0  0  0  0  0  3  0  0  0  0  0  0
    3.9782   -3.6338   13.6962 F   0  0  0  0  0  0  0  0  0  0  0  0
    7.9496   -3.7581   16.1262 C   0  0  0  0  0  2  0  0  0  0  0  0
    6.8253   -1.9862   13.3354 O   0  0  0  0  0  1  0  0  0  0  0  0
    2.1126   -4.9180   15.2593 F   0  0  0  0  0  0  0  0  0  0  0  0
    5.8075    0.1386   13.8895 C   0  0  0  0  0  3  0  0  0  0  0  0
    6.0145    0.6285   12.4691 C   0  0  0  0  0  2  0  0  0  0  0  0
    7.3815    1.1622   12.8541 C   0  0  0  0  0  2  0  0  0  0  0  0
    3.6385   -2.1064   17.0133 N   0  0  0  0  0  2  0  0  0  0  0  0
  1  9  1  1
  1  4  1  0
  2 14  1  0
  4 20  1  0
  5 12  1  0
  5 11  1  0
  5  6  1  0
  6  3  1  0
  6 20  1  0
  7 14  1  0
  8 13  1  0
  8 11  1  0
  8  1  1  0
 11  2  1  0
 12 15  1  0
 16  1  1  0
 17 10  1  0
 17 12  1  0
 18 19  1  0
 18 17  1  0
 19 10  1  0
M  RAD  8   2   3   3   2   4   3   5   2   6   2   7   2   8   2  10   3
M  RAD  8  11   2  12   2  14   3  15   2  17   2  18   3  19   3  20   2
M  END
$$$$

     RDKit          3D

 17 17  0  0  0  0  0  0  0  0999 V2000
    6.9897   -1.1518   12.4068 N   0  0  0  0  0  1  0  0  0  0  0  0
    1.4017    0.0128   14.3746 C   0  0  0  0  0  2  0  0  0  0  0  0
    4.9658   -0.4223   15.5970 C   0  0  0  0  0  0  0  0  0  0  0  0
    8.1540   -2.7352   15.0421 P   0  0  1  0  0  0  0  0  0  0  0  0
    0.8802   -0.3238   13.1174 O   0  0  0  0  0  0  0  0  0  0  0  0
    2.9088    0.0079   14.2822 C   0  0  0  0  0  3  0  0  0  0  0  0
    1.8184   -1.2006   12.5545 C   0  0  0  0  0  2  0  0  0  0  0  0
    7.6514   -3.8144   13.8407 O   0  0  0  0  0  1  0  0  0  0  0  0
    7.2835   -1.1489   14.8565 C   0  0  0  0  0  3  0  0  0  0  0  0
    7.8034   -3.3892   16.5616 O   0  0  0  0  0  1  0  0  0  0  0  0
    5.4288    0.6466   16.1580 N   0  0  0  0  0  2  0  0  0  0  0  0
    5.8454   -1.3620   14.9753 N   0  0  0  0  0  2  0  0  0  0  0  0
    9.6446   -2.5126   14.9265 O   0  0  0  0  0  0  0  0  0  0  0  0
    7.6441   -0.4873   13.5233 C   0  0  0  0  0  3  0  0  0  0  0  0
    3.4929   -0.6404   15.5282 C   0  0  0  0  0  2  0  0  0  0  0  0
    7.2745    0.9829   13.5305 C   0  0  0  0  0  1  0  0  0  0  0  0
    3.1898   -0.8228   13.0629 C   0  0  0  0  0  2  0  0  0  0  0  0
  1 14  1  0
  3 11  2  0
  3 12  1  0
  4 10  1  1
  5  2  1  0
  6  2  1  0
  6 15  1  0
  7 17  1  0
  7  5  1  0
  8  4  1  0
  9  4  1  0
  9 12  1  0
 13  4  2  0
 14 16  1  0
 14  9  1  0
 15  3  1  0
 17  6  1  0
M  RAD  8   1   3   2   3   6   2   7   3   8   2   9   2  10   2  11   2
M  RAD  5  12   2  14   2  15   3  16   2  17   3
M  END
$$$$

     RDKit          3D

 18 20  0  0  0  0  0  0  0  0999 V2000
    5.7613   -1.9316   17.2769 N   0  0  0  0  0  2  0  0  0  0  0  0
    8.7888   -0.4488   13.5530 C   0  0  0  0  0  2  0  0  0  0  0  0
    7.4275   -0.6767   14.1656 C   0  0  1  0  0  0  0  0  0  0  0  0
    7.4010   -2.9981   14.9522 N   0  0  0  0  0  2  0  0  0  0  0  0
    9.0760   -4.3936   13.8626 C   0  0  0  0  0  2  0  0  0  0  0  0
    8.5078   -6.3780   15.1043 C   0  0  0  0  0  2  0  0  0  0  0  0
    3.2928   -1.2855   14.8683 O   0  0  0  0  0  1  0  0  0  0  0  0
    7.6236   -4.2781   14.2991 C   0  0  0  0  0  3  0  0  0  0  0  0
    4.7500   -2.4522   16.3434 C   0  0  0  0  0  3  0  0  0  0  0  0
    7.5520    0.1922   12.9364 C   0  0  0  0  0  2  0  0  0  0  0  0
    6.8654   -2.0807   13.9557 C   0  0  0  0  0  3  0  0  0  0  0  0
    9.6781   -5.5393   14.6494 C   0  0  0  0  0  2  0  0  0  0  0  0
    5.3283   -2.1302   13.9138 C   0  0  0  0  0  3  0  0  0  0  0  0
    4.3308   -1.7647   17.5623 C   0  0  0  0  0  2  0  0  0  0  0  0
    4.6432   -1.5183   15.1449 C   0  0  0  0  0  3  0  0  0  0  0  0
    4.8794   -1.5091   12.7456 O   0  0  0  0  0  1  0  0  0  0  0  0
    7.3713   -5.3995   15.2878 C   0  0  0  0  0  2  0  0  0  0  0  0
    7.2266   -0.0057   15.3577 F   0  0  0  0  0  0  0  0  0  0  0  0
  2 10  1  0
  2  3  1  0
  3 11  1  0
  3 18  1  1
  4  8  1  0
  5 12  1  0
  6 12  1  0
  8 17  1  0
  8  5  1  0
  9 15  1  0
  9 14  1  0
  9  1  1  0
 10  3  1  0
 11  4  1  0
 13 16  1  0
 13 15  1  0
 13 11  1  0
 14  1  1  0
 15  7  1  0
 17  6  1  0
M  RAD  8   1   2   2   3   4   2   5   3   6   3   7   2   8   2   9   2
M  RAD  8  10   3  11   2  12   3  13   2  14   3  15   2  16   2  17   3
M  END
$$$$
/tmp/tmphf4_ezdy
     RDKit          3D

 20 20  0  0  1  0  0  0  0  0999 V2000
    3.2255   -0.8452   14.3128 C   0  0  0  0  0  3  0  0  0  0  0  0
    6.0476   -0.1887   17.5283 O   0  0  0  0  0  0  0  0  0  0  0  0
    5.4414   -0.8482   13.3202 O   0  0  0  0  0  0  0  0  0  0  0  0
    4.3434   -2.8012   15.3788 C   0  0  0  0  0  0  0  0  0  0  0  0
    5.7372   -2.9684   15.4077 O   0  0  0  0  0  0  0  0  0  0  0  0
    6.6825   -2.0766   15.9438 C   0  0  0  0  0  0  0  0  0  0  0  0
    9.0463   -4.6937   13.9042 C   0  0  0  0  0  1  0  0  0  0  0  0
    3.9340    0.7169   12.4142 C   0  0  0  0  0  3  0  0  0  0  0  0
    3.6220   -3.7886   15.0813 O   0  0  0  0  0  0  0  0  0  0  0  0
    8.2550   -4.7323   15.1979 C   0  0  0  0  0  2  0  0  0  0  0  0
    4.3547   -0.0336   13.6663 C   0  0  0  0  0  3  0  0  0  0  0  0
    6.1740   -0.0950   12.3889 C   0  0  0  0  0  3  0  0  0  0  0  0
    5.2347    0.8638   11.6823 C   0  0  0  0  0  2  0  0  0  0  0  0
    8.6611   -3.5803   16.1049 C   0  0  0  0  0  2  0  0  0  0  0  0
    2.1408   -0.0090   14.5811 O   0  0  0  0  0  1  0  0  0  0  0  0
    6.8188   -1.0209   11.3781 C   0  0  0  0  0  1  0  0  0  0  0  0
    3.0713   -0.0591   11.6348 O   0  0  0  0  0  1  0  0  0  0  0  0
    6.3552   -1.1069   16.7578 C   0  0  0  0  0  0  0  0  0  0  0  0
    3.6830   -1.4793   15.6199 C   0  0  0  0  0  2  0  0  0  0  0  0
    8.1226   -2.2497   15.5938 C   0  0  0  0  0  2  0  0  0  0  0  0
  1 15  1  0
  1 19  1  0
  3 11  1  0
  4  9  2  0
  5  4  1  0
  5  6  1  0
  6 18  2  0
  7 10  1  0
  8 17  1  0
  8 13  1  0
  8 11  1  0
 11  1  1  0
 12 16  1  0
 12 13  1  0
 12  3  1  0
 14 10  1  0
 18  2  2  0
 19  4  1  0
 20 14  1  0
 20  6  1  0
M  RAD  8   1   2   7   2   8   2  10   3  11   2  12   2  13   3  14   3
M  RAD  5  15   2  16   2  17   2  19   3  20   3
M  END
$$$$

     RDKit          3D

 11 11  0  0  0  0  0  0  0  0999 V2000
    2.3996   -0.5678   13.8012 C   0  0  0  0  0  3  0  0  0  0  0  0
    3.4249    0.3023   13.2227 C   0  0  0  0  0  3  0  0  0  0  0  0
    4.6090    0.4113   13.8075 C   0  0  0  0  0  3  0  0  0  0  0  0
    6.1710    0.7247   11.9943 N   0  0  0  0  0  2  0  0  0  0  0  0
    8.2770    0.1142   11.1768 O   0  0  0  0  0  0  0  0  0  0  0  0
    7.5672    0.5686   12.1108 C   0  0  0  0  0  0  0  0  0  0  0  0
    8.1067    0.9857   13.4162 C   0  0  0  0  0  2  0  0  0  0  0  0
    1.1923   -0.7203   13.2602 C   0  0  0  0  0  3  0  0  0  0  0  0
    5.6634    1.2925   13.2302 C   0  0  0  0  0  3  0  0  0  0  0  0
    0.7668   -0.0201   12.0127 C   0  0  0  0  0  1  0  0  0  0  0  0
    6.8531    1.3767   14.1962 C   0  0  0  0  0  2  0  0  0  0  0  0
  2  3  2  0
  2  1  1  0
  4  6  1  0
  4  9  1  0
  5  6  2  0
  6  7  1  0
  7 11  1  0
  8  1  2  0
  9  3  1  0
  9 11  1  0
 10  8  1  0
M  RAD  8   1   2   2   2   3   2   4   2   7   3   8   2   9   2  10   2
M  RAD  1  11   3
M  END
$$$$
/tmp/tmp_jq0paxu
     RDKit          3D

 20 21  0  0  1  0  0  0  0  0999 V2000
    6.0822   -3.0486   12.6330 S   0  0  0  0  0  0  0  0  0  0  0  0
    7.1409   -5.3984   17.4246 N   0  0  0  0  0  0  0  0  0  0  0  0
    5.3194   -1.2028   14.5148 C   0  0  1  0  0  0  0  0  0  0  0  0
    7.1900   -4.3964   18.4778 C   0  0  0  0  0  1  0  0  0  0  0  0
    6.0860   -0.4900   13.4960 N   0  0  0  0  0  0  0  0  0  0  0  0
    1.6086    0.2851   14.1296 S   0  0  0  0  0  3  0  0  0  0  0  0
    6.0298   -5.0528   16.5480 C   0  0  0  0  0  2  0  0  0  0  0  0
    6.8728   -3.1028   15.2569 C   0  0  0  0  0  2  0  0  0  0  0  0
    3.2045    0.1819   14.4513 C   0  0  0  0  0  3  0  0  0  0  0  0
    6.4097    0.9343   13.5729 C   0  0  0  0  0  2  0  0  0  0  0  0
    4.5863    1.6796   12.2095 O   0  0  0  0  0  1  0  0  0  0  0  0
    5.9765    1.6689   12.3118 C   0  0  0  0  0  2  0  0  0  0  0  0
    5.6338   -0.6951   15.8477 N   0  0  0  0  0  1  0  0  0  0  0  0
    6.6133   -1.3615   12.5073 C   0  0  0  0  0  0  0  0  0  0  0  0
    6.9380   -4.6127   15.4210 C   0  0  0  0  0  3  0  0  0  0  0  0
    3.8913   -1.0524   14.2591 N   0  0  0  0  0  2  0  0  0  0  0  0
    0.7295    1.8673   14.3742 C   0  0  0  0  0  1  0  0  0  0  0  0
    8.0551   -4.9700   16.3738 C   0  0  0  0  0  2  0  0  0  0  0  0
    7.4702   -0.9869   11.6639 O   0  0  0  0  0  0  0  0  0  0  0  0
    5.6803   -2.7027   14.3876 C   0  0  0  0  0  3  0  0  0  0  0  0
  1 20  1  0
  2 18  1  0
  2  7  1  0
  2  4  1  0
  3 20  1  0
  3 13  1  1
  5 10  1  0
  5  3  1  0
  6  9  2  0
  9 16  1  0
 11 12  1  0
 12 10  1  0
 14  1  1  0
 14  5  1  0
 15  8  1  0
 15  7  1  0
 16  3  1  0
 17  6  1  0
 18 15  1  0
 19 14  2  0
 20  8  1  0
M  RAD  8   4   2   6   2   7   3   8   3   9   2  10   3  11   2  12   3
M  RAD  6  13   3  15   2  16   2  17   2  18   3  20   2
M  END
$$$$

     RDKit          3D

 18 21  0  0  0  0  0  0  0  0999 V2000
    6.0419   -0.2322   14.4983 C   0  0  0  0  0  3  0  0  0  0  0  0
    6.1225   -2.7984   14.1854 C   0  0  0  0  0  2  0  0  0  0  0  0
    3.4215   -0.4999   17.0205 O   0  0  0  0  0  1  0  0  0  0  0  0
    7.4357   -0.5762   13.9430 C   0  0  0  0  0  3  0  0  0  0  0  0
    5.2376   -4.1550   16.0198 O   0  0  0  0  0  0  0  0  0  0  0  0
    4.2097   -1.6348   16.8191 C   0  0  0  0  0  3  0  0  0  0  0  0
    3.0942   -1.4684   14.4469 C   0  0  0  0  0  3  0  0  0  0  0  0
    3.3091   -2.8434   16.6338 C   0  0  0  0  0  3  0  0  0  0  0  0
    6.7256   -1.5646   14.8604 C   0  0  0  0  0  3  0  0  0  0  0  0
    4.8965   -3.3319   14.9374 C   0  0  0  0  0  3  0  0  0  0  0  0
    1.9778   -2.2458   14.1210 O   0  0  0  0  0  1  0  0  0  0  0  0
    7.4087   -1.0037   12.6084 O   0  0  0  0  0  1  0  0  0  0  0  0
    3.3272   -5.2321   16.7056 O   0  0  0  0  0  1  0  0  0  0  0  0
    2.9909   -0.6821   12.0530 C   0  0  0  0  0  1  0  0  0  0  0  0
    4.1270   -4.1039   16.8923 C   0  0  0  0  0  3  0  0  0  0  0  0
    5.0043   -0.0883   13.3541 C   0  0  0  0  0  2  0  0  0  0  0  0
    3.9022   -1.1440   13.1769 C   0  0  0  0  0  3  0  0  0  0  0  0
    3.9707   -2.2404   15.4362 C   0  0  2  0  0  0  0  0  0  0  0  0
  1 16  1  0
  1  9  1  0
  2 10  1  0
  4 12  1  0
  4  1  1  0
  4  9  1  0
  5 15  1  0
  6  8  1  0
  6  3  1  0
  7 11  1  0
 18  7  1  6
  8 15  1  0
  9  2  1  0
 10  5  1  0
 13 15  1  0
 14 17  1  0
 17 16  1  0
 17  7  1  0
 18 10  1  0
 18  6  1  0
 18  8  1  0
M  RAD  8   1   2   2   3   3   2   4   2   6   2   7   2   8   2   9   2
M  RAD  8  10   2  11   2  12   2  13   2  14   2  15   2  16   3  17   2
M  END
$$$$

     RDKit          3D

 14 16  0  0  0  0  0  0  0  0999 V2000
    7.1321   -0.4703   14.4623 N   0  0  0  0  0  2  0  0  0  0  0  0
    6.0964   -1.0502   12.3148 C   0  0  0  0  0  3  0  0  0  0  0  0
    7.2704   -1.1296   11.5664 O   0  0  0  0  0  1  0  0  0  0  0  0
    5.0039    0.4337   14.0597 N   0  0  0  0  0  0  0  0  0  0  0  0
    5.8088   -2.3025   12.8631 O   0  0  0  0  0  1  0  0  0  0  0  0
    6.2516    0.0152   13.4142 C   0  0  0  0  0  3  0  0  0  0  0  0
    3.7923    0.3297   13.2217 C   0  0  0  0  0  3  0  0  0  0  0  0
    0.5406    0.0049   13.0910 S   0  0  0  0  0  0  0  0  0  0  0  0
    1.7408    0.6730   14.3178 C   0  0  0  0  0  3  0  0  0  0  0  0
    1.8489   -0.7764   14.1258 C   0  0  0  0  0  3  0  0  0  0  0  0
    2.8317    1.3479   13.6184 N   0  0  0  0  0  2  0  0  0  0  0  0
    3.0895   -1.0149   13.3021 C   0  0  0  0  0  2  0  0  0  0  0  0
    6.2683   -0.6275   15.6243 C   0  0  0  0  0  2  0  0  0  0  0  0
    4.8976   -0.3249   15.2363 N   0  0  0  0  0  2  0  0  0  0  0  0
  1 13  1  0
  2  3  1  0
  4 14  1  0
  5  2  1  0
  6  2  1  0
  6  4  1  0
  6  1  1  0
  7 12  1  0
  7  4  1  0
  8 10  1  0
  9  8  1  0
  9 11  1  0
  9 10  1  0
 10 12  1  0
 11  7  1  0
 14 13  1  0
M  RAD  8   1   2   2   2   3   2   5   2   6   2   7   2   9   2  10   2
M  RAD  4  11   2  12   3  13   3  14   2
M  END
$$$$
/tmp/tmpptbuvz_e
     RDKit          3D

 20 21  0  0  1  0  0  0  0  0999 V2000
    3.6681    3.4337   14.3908 C   0  0  0  0  0  2  0  0  0  0  0  0
    4.0559    2.2308   14.9793 O   0  0  0  0  0  0  0  0  0  0  0  0
    3.5650   -1.8064   12.2457 O   0  0  0  0  0  0  0  0  0  0  0  0
    7.9556   -3.8851   14.1506 C   0  0  0  0  0  3  0  0  0  0  0  0
    3.5397   -1.9652   15.1563 C   0  0  0  0  0  3  0  0  0  0  0  0
    4.0766   -2.9680   12.8282 C   0  0  0  0  0  0  0  0  0  0  0  0
    3.4436   -0.6310   14.4066 C   0  0  0  0  0  3  0  0  0  0  0  0
    8.4483   -3.5671   15.4140 O   0  0  0  0  0  0  0  0  0  0  0  0
    6.6598   -3.7931   13.8719 C   0  0  0  0  0  3  0  0  0  0  0  0
   10.5741   -2.4907   15.0574 C   0  0  0  0  0  1  0  0  0  0  0  0
    4.6645    1.5158   13.9471 C   0  0  0  0  0  2  0  0  0  0  0  0
    4.3716   -3.9523   12.0986 O   0  0  0  0  0  0  0  0  0  0  0  0
    5.6632   -3.3433   14.8935 C   0  0  0  0  0  3  0  0  0  0  0  0
    4.8053    0.0544   14.3404 C   0  0  0  0  0  2  0  0  0  0  0  0
    4.5197   -4.3522   14.9681 C   0  0  0  0  0  2  0  0  0  0  0  0
    4.2864   -3.0042   14.3224 C   0  0  1  0  0  0  0  0  0  0  0  0
    2.2574   -2.4272   15.4618 O   0  0  0  0  0  1  0  0  0  0  0  0
    3.0475    4.3325   15.4396 C   0  0  0  0  0  1  0  0  0  0  0  0
    9.8365   -3.6545   15.6932 C   0  0  0  0  0  2  0  0  0  0  0  0
    2.8461   -0.8318   13.0055 C   0  0  0  0  0  2  0  0  0  0  0  0
  1  2  1  0
  1 18  1  0
  4  9  2  0
  5 17  1  0
  6  3  1  0
  6 16  1  0
  7 14  1  0
  7 20  1  0
  7  5  1  0
  8  4  1  0
  8 19  1  0
 10 19  1  0
 11  2  1  0
 11 14  1  0
 12  6  2  0
 13  9  1  0
 13 15  1  0
 16  5  1  0
 16 13  1  0
 16 15  1  6
 20  3  1  0
M  RAD  8   1   3   4   2   5   2   7   2   9   2  10   2  11   3  13   2
M  RAD  6  14   3  15   3  17   2  18   2  19   3  20   3
M  END
$$$$
/tmp/tmpfpl3fcah
     RDKit          3D

 20 20  0  0  1  0  0  0  0  0999 V2000
    5.6468   -4.9591   16.9716 C   0  0  0  0  0  3  0  0  0  0  0  0
    3.6731   -0.0757   15.2100 C   0  0  0  0  0  3  0  0  0  0  0  0
    2.5400    0.8547   13.3841 C   0  0  0  0  0  3  0  0  0  0  0  0
    1.1656    0.9934   12.7648 C   0  0  0  0  0  2  0  0  0  0  0  0
    4.9098   -0.7972   14.6616 C   0  0  0  0  0  3  0  0  0  0  0  0
    3.3482   -0.5353   16.4877 O   0  0  0  0  0  1  0  0  0  0  0  0
    5.6392   -4.1653   18.2657 C   0  0  0  0  0  1  0  0  0  0  0  0
    4.1581   -4.0983   12.9734 O   0  0  0  0  0  1  0  0  0  0  0  0
    4.4989   -2.7629   13.1565 C   0  0  0  0  0  0  0  0  0  0  0  0
    4.4360   -5.8722   16.9014 C   0  0  0  0  0  1  0  0  0  0  0  0
    2.8441    1.3016   10.9806 C   0  0  0  0  0  1  0  0  0  0  0  0
    8.3789   -1.1443   14.7541 O   0  0  0  0  0  0  0  0  0  0  0  0
    2.2784    0.3243   11.9888 C   0  0  0  0  0  3  0  0  0  0  0  0
    5.7315   -4.0440   15.7530 C   0  0  0  0  0  2  0  0  0  0  0  0
    7.2367   -0.8542   15.1315 C   0  0  0  0  0  0  0  0  0  0  0  0
    4.5314   -3.1085   15.6399 C   0  0  0  0  0  2  0  0  0  0  0  0
    4.6783   -2.2350   14.4792 N   0  0  0  0  0  0  0  0  0  0  0  0
    2.5353   -0.2554   14.3214 N   0  0  0  0  0  2  0  0  0  0  0  0
    4.6497   -2.0224   12.1485 O   0  0  0  0  0  0  0  0  0  0  0  0
    6.0630   -0.5572   15.5192 N   0  0  0  0  0  0  0  0  0  0  0  0
  1  7  1  0
  2  5  1  0
  2  6  1  0
  3  4  1  0
  3 18  1  0
  5 20  1  0
  8  9  1  0
  9 17  1  0
 10  1  1  0
 12 15  2  0
 13 11  1  0
 13  3  1  0
 13  4  1  0
 14  1  1  0
 15 20  2  0
 16 14  1  0
 17  5  1  0
 17 16  1  0
 18  2  1  0
 19  9  2  0
M  RAD  8   1   2   2   2   3   2   4   3   5   2   6   2   7   2   8   2
M  RAD  6  10   2  11   2  13   2  14   3  16   3  18   2
M  END
$$$$

     RDKit          3D

 10 10  0  0  0  0  0  0  0  0999 V2000
    6.0702    0.5479   15.3633 C   0  0  0  0  0  0  0  0  0  0  0  0
    5.3549   -1.6937   13.7521 O   0  0  0  0  0  1  0  0  0  0  0  0
    7.4872   -2.5948   15.6680 O   0  0  0  0  0  1  0  0  0  0  0  0
    4.9921    0.8454   15.9394 O   0  0  0  0  0  0  0  0  0  0  0  0
    7.0125    1.0357   11.8286 C   0  0  0  0  0  1  0  0  0  0  0  0
    7.3304   -0.3160   15.2310 N   0  0  0  0  0  0  0  0  0  0  0  0
    7.0176    0.7317   14.3635 C   0  0  0  0  0  3  0  0  0  0  0  0
    5.8341   -0.8545   12.7527 C   0  0  0  0  0  3  0  0  0  0  0  0
    6.5738    0.2355   13.0014 C   0  0  0  0  0  0  0  0  0  0  0  0
    8.1951   -1.3941   15.6739 C   0  0  0  0  0  2  0  0  0  0  0  0
  1  4  2  0
  5  9  1  0
  6  1  1  0
  6 10  1  0
  7  9  1  0
  7  6  1  0
  7  1  1  0
  8  2  1  0
  8  9  2  0
 10  3  1  0
M  RAD  6   2   2   3   2   5   2   7   2   8   2  10   3
M  END
$$$$
/tmp/tmp8c325uaw
     RDKit          3D

 20 20  0  0  1  0  0  0  0  0999 V2000
    5.1232   -0.4950   14.0302 C   0  0  0  0  0  3  0  0  0  0  0  0
    6.4112   -4.7768   16.7589 C   0  0  0  0  0  2  0  0  0  0  0  0
    1.2484   -2.7466   13.8144 C   0  0  0  0  0  1  0  0  0  0  0  0
    6.0892   -2.5182   16.0338 N   0  0  0  0  0  0  0  0  0  0  0  0
    7.0757   -2.4917   17.1035 C   0  0  0  0  0  2  0  0  0  0  0  0
    7.4804   -3.9210   17.3916 C   0  0  0  0  0  2  0  0  0  0  0  0
    5.3747   -0.2409   15.5116 C   0  0  0  0  0  2  0  0  0  0  0  0
    4.0384   -2.3703   12.2535 O   0  0  0  0  0  0  0  0  0  0  0  0
    8.2549    3.0492   13.7971 C   0  0  0  0  0  2  0  0  0  0  0  0
    7.6133    2.1261   12.8148 C   0  0  0  0  0  0  0  0  0  0  0  0
    3.7297   -0.7004   13.8219 O   0  0  0  0  0  0  0  0  0  0  0  0
    5.1002   -1.4938   16.3308 C   0  0  0  0  0  2  0  0  0  0  0  0
    3.2470   -1.6415   12.9105 C   0  0  0  0  0  0  0  0  0  0  0  0
    7.1355    0.7841   13.2685 C   0  0  0  0  0  2  0  0  0  0  0  0
    9.7124    3.2695   13.4396 C   0  0  0  0  0  1  0  0  0  0  0  0
    1.7793   -1.8142   12.7441 C   0  0  0  0  0  2  0  0  0  0  0  0
    5.2197    0.5436   11.8712 O   0  0  0  0  0  1  0  0  0  0  0  0
    5.6157    0.6908   13.2026 C   0  0  0  0  0  3  0  0  0  0  0  0
    5.4205   -3.8030   16.1609 C   0  0  0  0  0  2  0  0  0  0  0  0
    7.4824    2.4650   11.6486 O   0  0  0  0  0  0  0  0  0  0  0  0
  1  7  1  0
  2  6  1  0
  2 19  1  0
  3 16  1  0
  4 12  1  0
  5  4  1  0
  6  5  1  0
 10  9  1  0
 10 14  1  0
 11  1  1  0
 12  7  1  0
 13  8  2  0
 13 11  1  0
 14 18  1  0
 15  9  1  0
 16 13  1  0
 18 17  1  0
 18  1  1  0
 19  4  1  0
 20 10  2  0
M  RAD  8   1   2   2   3   3   2   5   3   6   3   7   3   9   3  12   3
M  RAD  6  14   3  15   2  16   3  17   2  18   2  19   3
M  END
$$$$

     RDKit          3D

 14 13  0  0  0  0  0  0  0  0999 V2000
    5.8243   -0.7269   15.6024 C   0  0  0  0  0  3  0  0  0  0  0  0
    8.0174   -3.8189   16.2071 C   0  0  0  0  0  0  0  0  0  0  0  0
    9.5944   -5.5346   15.2191 C   0  0  0  0  0  2  0  0  0  0  0  0
    3.4116   -0.8999   15.0023 O   0  0  0  0  0  1  0  0  0  0  0  0
    8.6853   -6.1899   14.1970 C   0  0  0  0  0  1  0  0  0  0  0  0
    8.1982   -1.1842   13.8172 C   0  0  0  0  0  1  0  0  0  0  0  0
    6.6561    0.3948   15.6529 O   0  0  0  0  0  1  0  0  0  0  0  0
    4.6950   -0.5060   14.6493 C   0  0  0  0  0  0  0  0  0  0  0  0
    7.1084   -2.0605   13.9422 O   0  0  0  0  0  0  0  0  0  0  0  0
    7.6214   -2.3900   16.3477 C   0  0  0  0  0  2  0  0  0  0  0  0
    4.9030    0.0037   13.5164 O   0  0  0  0  0  0  0  0  0  0  0  0
    6.6076   -2.0045   15.2663 C   0  0  0  0  0  3  0  0  0  0  0  0
    7.3122   -4.7175   16.7391 O   0  0  0  0  0  0  0  0  0  0  0  0
    9.1790   -4.1587   15.4470 N   0  0  0  0  0  2  0  0  0  0  0  0
  1  7  1  0
  2 10  1  0
  2 13  2  0
  3  5  1  0
  3 14  1  0
  6  9  1  0
  8  4  1  0
  8  1  1  0
  9 12  1  0
 11  8  2  0
 12  1  1  0
 12 10  1  0
 14  2  1  0
M  RAD  8   1   2   3   3   4   2   5   2   6   2   7   2  10   3  12   2
M  RAD  1  14   2
M  END
$$$$

     RDKit          3D

 15 15  0  0  0  0  0  0  0  0999 V2000
    3.9452   -0.6663   16.8379 N   0  0  0  0  0  2  0  0  0  0  0  0
    3.6993    0.3334   15.7752 C   0  0  0  0  0  0  0  0  0  0  0  0
    7.3452    0.1003   12.0628 C   0  0  0  0  0  1  0  0  0  0  0  0
    5.7945   -0.6494   13.8327 C   0  0  0  0  0  0  0  0  0  0  0  0
    3.7770   -1.1843   12.4108 C   0  0  0  0  0  0  0  0  0  0  0  0
    4.3616   -0.8565   13.6875 N   0  0  0  0  0  0  0  0  0  0  0  0
    3.6260   -1.7166   15.8927 C   0  0  0  0  0  3  0  0  0  0  0  0
    2.4867   -1.6998   12.3454 O   0  0  0  0  0  1  0  0  0  0  0  0
    3.4048   -0.7746   14.8139 C   0  0  0  0  0  3  0  0  0  0  0  0
    4.4025   -0.9796   11.3370 O   0  0  0  0  0  0  0  0  0  0  0  0
    6.2650   -0.1153   14.8726 O   0  0  0  0  0  0  0  0  0  0  0  0
    4.7386   -2.5433   15.6994 O   0  0  0  0  0  0  0  0  0  0  0  0
    3.7275    1.5898   15.7091 O   0  0  0  0  0  0  0  0  0  0  0  0
    4.2495   -3.8397   15.8606 C   0  0  0  0  0  1  0  0  0  0  0  0
    6.7625   -1.0992   12.7853 C   0  0  0  0  0  2  0  0  0  0  0  0
  2  1  1  0
  2 13  2  0
  3 15  1  0
  4 11  2  0
  5  8  1  0
  5  6  1  0
  6  4  1  0
  7 12  1  0
  7  1  1  0
  9  6  1  0
  9  7  1  0
  9  2  1  0
 10  5  2  0
 12 14  1  0
 15  4  1  0
M  RAD  7   1   2   3   2   7   2   8   2   9   2  14   2  15   3
M  END
$$$$
/tmp/tmp06qzvexd
     RDKit          3D

 20 22  0  0  1  0  0  0  0  0999 V2000
    5.9527   -1.7368   13.3085 O   0  0  0  0  0  1  0  0  0  0  0  0
    7.0012   -4.6047   15.7234 C   0  0  0  0  0  2  0  0  0  0  0  0
    2.9747   -4.3487   15.7452 C   0  0  0  0  0  3  0  0  0  0  0  0
    9.4339   -4.6737   15.6763 C   0  0  0  0  0  2  0  0  0  0  0  0
    3.1100   -4.6080   14.4537 C   0  0  0  0  0  3  0  0  0  0  0  0
    3.7096   -0.2729   15.6667 N   0  0  0  0  0  2  0  0  0  0  0  0
    6.7453   -2.1221   15.5219 C   0  0  0  0  0  2  0  0  0  0  0  0
    4.0658   -3.6777   13.8749 C   0  0  0  0  0  3  0  0  0  0  0  0
    5.9455    0.5131   15.6455 O   0  0  0  0  0  1  0  0  0  0  0  0
    1.4033    0.1485   13.1167 C   0  0  0  0  0  1  0  0  0  0  0  0
    7.5130   -3.3527   15.0481 C   0  0  0  0  0  3  0  0  0  0  0  0
    3.9344    0.3733   14.3576 C   0  0  0  0  0  3  0  0  0  0  0  0
    3.6410    0.0206   11.7827 O   0  0  0  0  0  0  0  0  0  0  0  0
    8.9608   -3.2490   15.4643 C   0  0  0  0  0  2  0  0  0  0  0  0
    5.5307   -1.7753   14.6434 C   0  0  2  0  0  0  0  0  0  0  0  0
    3.0613   -0.5470   13.0705 S   0  0  0  0  0  0  0  0  0  0  0  0
    3.8480   -3.2067   16.1369 C   0  0  0  0  0  2  0  0  0  0  0  0
    4.4779   -2.8552   14.8297 C   0  0  0  0  0  0  0  0  0  0  0  0
    8.1914   -5.5373   15.8069 C   0  0  0  0  0  2  0  0  0  0  0  0
    5.0324   -0.3447   15.0270 C   0  0  2  0  0  0  0  0  0  0  0  0
  2 11  1  0
  2 19  1  0
  4 14  1  0
  5  3  2  0
  6 20  1  0
  7 11  1  0
  8 18  2  0
  8  5  1  0
 11 14  1  0
 12 16  1  0
 12  6  1  0
 12 20  1  0
 13 16  2  0
 15  1  1  6
 15  7  1  0
 15 18  1  0
 15 20  1  0
 16 10  1  6
 17  3  1  0
 18 17  1  0
 19  4  1  0
 20  9  1  1
M  RAD  8   1   2   2   3   3   2   4   3   5   2   6   2   7   3   8   2
M  RAD  7   9   2  10   2  11   2  12   2  14   3  17   3  19   3
M  END
$$$$
/tmp/tmpii9e9st_
     RDKit          3D

 20 19  0  0  1  0  0  0  0  0999 V2000
    7.7380   -2.4034   15.9258 N   0  0  0  0  0  2  0  0  0  0  0  0
    4.6165   -0.3295   12.1829 C   0  0  0  0  0  0  0  0  0  0  0  0
    5.5171   -1.7041   16.4771 C   0  0  0  0  0  0  0  0  0  0  0  0
    4.2349   -1.0855   16.0093 C   0  0  0  0  0  2  0  0  0  0  0  0
    6.6186   -1.5187   13.1627 C   0  0  0  0  0  2  0  0  0  0  0  0
    3.8769   -4.1873   15.3270 O   0  0  0  0  0  0  0  0  0  0  0  0
    5.5551   -2.2770   17.5998 O   0  0  0  0  0  0  0  0  0  0  0  0
    2.3797    0.2612   13.0184 C   0  0  0  0  0  2  0  0  0  0  0  0
    0.9042    0.3495   12.6716 C   0  0  0  0  0  2  0  0  0  0  0  0
    5.2242   -1.4943   12.7462 N   0  0  0  0  0  2  0  0  0  0  0  0
    6.7895   -0.7307   14.4512 C   0  0  0  0  0  3  0  0  0  0  0  0
    3.0751   -2.0737   16.0803 C   0  0  0  0  0  2  0  0  0  0  0  0
    0.2552   -1.0194   12.7485 C   0  0  0  0  0  1  0  0  0  0  0  0
    2.6147   -2.9917   13.8070 O   0  0  0  0  0  0  0  0  0  0  0  0
    5.2954    0.7124   11.9780 O   0  0  0  0  0  0  0  0  0  0  0  0
    2.7218   -3.9802   12.7940 C   0  0  0  0  0  1  0  0  0  0  0  0
    8.0890    0.0540   14.4126 C   0  0  0  0  0  1  0  0  0  0  0  0
    3.1640   -0.3350   11.8620 C   0  0  0  0  0  2  0  0  0  0  0  0
    3.2111   -3.1512   15.0570 C   0  0  0  0  0  0  0  0  0  0  0  0
    6.7329   -1.6354   15.6486 C   0  0  0  0  0  0  0  0  0  0  0  0
  2 10  1  0
  3  7  2  0
  4  3  1  0
  4 12  1  0
  5 11  1  0
  9  8  1  0
 10  5  1  0
 11 17  1  0
 11 20  1  0
 13  9  1  0
 14 16  1  0
 14 19  1  0
 15  2  2  0
 18  2  1  0
 18  8  1  0
 19  6  2  0
 19 12  1  0
 20  1  2  0
 20  3  1  0
M  RAD  8   1   2   4   3   5   3   8   3   9   3  10   2  11   2  12   3
M  RAD  4  13   2  16   2  17   2  18   3
M  END
$$$$
/tmp/tmp8japbxom
     RDKit          3D

 20 22  0  0  1  0  0  0  0  0999 V2000
    4.0726   -1.6293   14.3758 C   0  0  0  0  0  3  0  0  0  0  0  0
    2.5012    0.6377   13.4687 C   0  0  0  0  0  2  0  0  0  0  0  0
    3.7231    0.9264   14.3549 C   0  0  0  0  0  3  0  0  0  0  0  0
    2.4381   -0.8329   13.0327 C   0  0  0  0  0  3  0  0  0  0  0  0
    3.7221   -1.4030   13.0275 O   0  0  0  0  0  0  0  0  0  0  0  0
    8.3727   -6.1781   16.2007 C   0  0  0  0  0  2  0  0  0  0  0  0
    4.9040    1.3654   13.4922 C   0  0  0  0  0  2  0  0  0  0  0  0
    4.0751   -0.3062   15.2046 C   0  0  0  0  0  3  0  0  0  0  0  0
    7.8799   -4.8100   16.6237 C   0  0  0  0  0  3  0  0  0  0  0  0
    8.0551   -3.8435   15.4675 C   0  0  0  0  0  2  0  0  0  0  0  0
    5.5337   -1.2961   16.7659 C   0  0  0  0  0  2  0  0  0  0  0  0
    9.2421   -5.2982   17.0715 C   0  0  0  0  0  2  0  0  0  0  0  0
    5.2192   -3.7747   12.5104 O   0  0  0  0  0  1  0  0  0  0  0  0
    5.4102   -2.3872   14.4519 C   0  0  0  0  0  3  0  0  0  0  0  0
    7.5130   -2.4702   15.8342 C   0  0  0  0  0  2  0  0  0  0  0  0
    5.3086   -0.1011   15.9640 N   0  0  0  0  0  2  0  0  0  0  0  0
    5.9887   -2.4575   15.8795 C   0  0  0  0  0  3  0  0  0  0  0  0
    5.2490   -3.7992   13.9048 C   0  0  0  0  0  2  0  0  0  0  0  0
    1.7235   -0.9448   11.4093 Cl  0  0  0  0  0  0  0  0  0  0  0  0
    4.6993    2.7836   12.9944 C   0  0  0  0  0  1  0  0  0  0  0  0
  1  5  1  0
  1 14  1  0
  1  8  1  0
  2  4  1  0
  2  3  1  0
  3  7  1  0
  3  8  1  0
  4 19  1  0
  4  5  1  0
  6 12  1  0
  8 16  1  0
  9  6  1  0
  9 12  1  0
 10  9  1  0
 10 15  1  0
 13 18  1  0
 14 18  1  0
 14 17  1  0
 16 11  1  0
 17 15  1  0
 17 11  1  0
 20  7  1  0
M  RAD  8   1   2   2   3   3   2   4   2   6   3   7   3   8   2   9   2
M  RAD  8  10   3  11   3  12   3  13   2  14   2  15   3  16   2  17   2
M  RAD  2  18   3  20   2
M  END
$$$$
/tmp/tmp5zpt2gt7
     RDKit          3D

 20 20  0  0  1  0  0  0  0  0999 V2000
    6.4109   -3.5966   15.9885 C   0  0  0  0  0  2  0  0  0  0  0  0
    4.1859   -1.3933   15.6961 C   0  0  0  0  0  3  0  0  0  0  0  0
    4.5171   -2.5260   14.8131 N   0  0  0  0  0  2  0  0  0  0  0  0
    7.8498   -5.7437   15.9435 C   0  0  0  0  0  2  0  0  0  0  0  0
    2.3764    1.3632   11.6798 C   0  0  0  0  0  3  0  0  0  0  0  0
    4.8369   -1.4740   16.9285 O   0  0  0  0  0  1  0  0  0  0  0  0
    2.6786   -0.3512   13.3621 C   0  0  0  0  0  3  0  0  0  0  0  0
    7.1994   -0.9492   15.3928 O   0  0  0  0  0  1  0  0  0  0  0  0
    3.4420    2.0853   12.2249 C   0  0  0  0  0  3  0  0  0  0  0  0
    4.4657   -0.1161   15.0509 N   0  0  0  0  0  2  0  0  0  0  0  0
    0.9364   -0.5722   11.7080 O   0  0  0  0  0  1  0  0  0  0  0  0
    7.7528   -4.2575   15.8671 C   0  0  0  0  0  0  0  0  0  0  0  0
    6.0196   -3.8478   13.6595 O   0  0  0  0  0  1  0  0  0  0  0  0
    5.9372   -2.9125   14.6927 C   0  0  2  0  0  0  0  0  0  0  0  0
    1.9946    0.1449   12.2486 C   0  0  0  0  0  0  0  0  0  0  0  0
    3.7500    0.3696   13.9116 C   0  0  0  0  0  0  0  0  0  0  0  0
    8.3385   -6.2482   14.7384 O   0  0  0  0  0  1  0  0  0  0  0  0
    4.1264    1.5889   13.3386 C   0  0  0  0  0  3  0  0  0  0  0  0
    8.7650   -3.5855   15.7477 O   0  0  0  0  0  0  0  0  0  0  0  0
    6.8299   -1.7261   14.2915 C   0  0  0  0  0  2  0  0  0  0  0  0
  1 12  1  0
  2  6  1  0
  3  2  1  0
  4 12  1  0
  5 15  2  0
  9  5  1  0
  9 18  2  0
 10  2  1  0
 12 19  2  0
 14 13  1  6
 14 20  1  0
 14  3  1  0
 14  1  1  0
 15 11  1  0
 15  7  1  0
 16  7  2  0
 16 10  1  0
 17  4  1  0
 18 16  1  0
 20  8  1  0
M  RAD  8   1   3   2   2   3   2   4   3   5   2   6   2   7   2   8   2
M  RAD  7   9   2  10   2  11   2  13   2  17   2  18   2  20   3
M  END
$$$$
