/tmp/tmpr_46xxme
     RDKit          3D

 20 24  0  0  1  0  0  0  0  0999 V2000
  -90.7642   62.7636  103.3437 N   0  0  0  0  0  0  0  0  0  0  0  0
  -83.4399   68.3028  104.3438 C   0  0  0  0  0  3  0  0  0  0  0  0
  -91.7305   63.4767  104.1402 C   0  0  0  0  0  3  0  0  0  0  0  0
  -88.9328   64.9650  105.1068 C   0  0  0  0  0  3  0  0  0  0  0  0
  -83.6178   66.9990  105.1074 C   0  0  0  0  0  3  0  0  0  0  0  0
  -87.7818   68.1330  106.6125 C   0  0  0  0  0  2  0  0  0  0  0  0
  -84.6605   69.1568  104.6383 C   0  0  0  0  0  2  0  0  0  0  0  0
  -89.9249   67.1992  105.8269 C   0  0  0  0  0  0  0  0  0  0  0  0
  -91.3711   67.6182  105.9112 C   0  0  0  0  0  2  0  0  0  0  0  0
  -85.7118   68.2273  105.1965 C   0  0  0  0  0  3  0  0  0  0  0  0
  -84.9415   67.0971  105.8442 C   0  0  0  0  0  2  0  0  0  0  0  0
  -91.1961   65.3640  105.7355 C   0  0  0  0  0  0  0  0  0  0  0  0
  -86.5684   68.9602  106.2180 C   0  0  0  0  0  2  0  0  0  0  0  0
  -89.5729   63.0225  103.7262 N   0  0  0  0  0  0  0  0  0  0  0  0
  -89.8741   65.8824  105.7794 C   0  0  0  0  0  0  0  0  0  0  0  0
  -88.7982   68.1128  105.4839 C   0  0  0  0  0  2  0  0  0  0  0  0
  -91.0675   64.0673  105.1200 C   0  0  0  0  0  0  0  0  0  0  0  0
  -82.6569   68.0543  105.6175 C   0  0  0  0  0  2  0  0  0  0  0  0
  -89.6795   63.8847  104.8418 C   0  0  0  0  0  0  0  0  0  0  0  0
  -92.1037   66.3190  105.6581 C   0  0  0  0  0  3  0  0  0  0  0  0
  1  3  1  0
  2 18  1  0
  2  7  1  0
  3 17  2  0
  4 15  1  0
  5 11  1  0
  5  2  1  0
  5 18  1  0
  6 13  1  0
  8 16  1  0
  8  9  1  0
  9 20  1  0
 10  7  1  0
 10 13  1  0
 11 10  1  0
 12 20  2  0
 14  1  2  0
 14 19  1  0
 15  8  2  0
 15 12  1  0
 16  6  1  0
 17 12  1  0
 19  4  2  0
 19 17  1  0
M  RAD  8   2   2   3   2   4   2   5   2   6   3   7   3   9   3  10   2
M  RAD  5  11   3  13   3  16   3  18   3  20   2
M  END
$$$$
/tmp/tmpblby2rgi
     RDKit          3D

 20 21  0  0  0  0  0  0  0  0999 V2000
  -85.7900   68.6324  104.5963 N   0  0  0  0  0  0  0  0  0  0  0  0
  -83.2171   69.5879  104.3363 Cl  0  0  0  0  0  0  0  0  0  0  0  0
  -87.8301   67.6353  105.1828 O   0  0  0  0  0  0  0  0  0  0  0  0
  -88.0389   61.8819  103.8027 C   0  0  0  0  0  3  0  0  0  0  0  0
  -87.1002   68.6580  104.5738 C   0  0  0  0  0  0  0  0  0  0  0  0
  -87.6207   64.3700  106.9952 C   0  0  0  0  0  2  0  0  0  0  0  0
  -87.3077   69.9371  101.4943 C   0  0  0  0  0  3  0  0  0  0  0  0
  -88.1650   69.6383  102.4875 C   0  0  0  0  0  3  0  0  0  0  0  0
  -85.9045   70.3611  101.6739 C   0  0  0  0  0  3  0  0  0  0  0  0
  -87.2379   62.5648  104.8255 C   0  0  0  0  0  0  0  0  0  0  0  0
  -89.3727   61.8595  103.7154 C   0  0  0  0  0  3  0  0  0  0  0  0
  -87.8755   69.7978  103.9590 C   0  0  0  0  0  2  0  0  0  0  0  0
  -90.3392   62.4634  104.6451 C   0  0  0  0  0  3  0  0  0  0  0  0
  -87.0721   63.4474  105.9609 C   0  0  0  0  0  0  0  0  0  0  0  0
  -88.2650   65.5818  106.3436 C   0  0  0  0  0  2  0  0  0  0  0  0
  -85.9765   62.8097  105.3755 C   0  0  0  0  0  2  0  0  0  0  0  0
  -87.2040   66.5245  105.8082 C   0  0  0  0  0  2  0  0  0  0  0  0
  -89.9968   62.9695  105.7435 O   0  0  0  0  0  0  0  0  0  0  0  0
  -84.9159   69.5487  103.9178 C   0  0  0  0  0  0  0  0  0  0  0  0
  -85.2992   70.0279  102.7727 C   0  0  0  0  0  0  0  0  0  0  0  0
  1 19  1  0
  1  5  2  0
  2 19  1  0
  3  5  1  0
  4 11  2  0
  4 10  1  0
  5 12  1  0
  6 15  1  0
  8  7  2  0
  9  7  1  0
 10 16  1  0
 10 14  2  0
 11 13  1  0
 12  8  1  0
 13 18  2  0
 14  6  1  0
 16 14  1  0
 17 15  1  0
 17  3  1  0
 19 20  2  0
 20  9  2  0
M  RAD  8   4   2   6   3   7   2   8   2   9   2  11   2  12   3  13   2
M  RAD  3  15   3  16   3  17   3
M  END
$$$$
/tmp/tmpokgab1t2
     RDKit          3D

 20 21  0  0  1  0  0  0  0  0999 V2000
  -88.0328   71.1615  105.3967 N   0  0  0  0  0  0  0  0  0  0  0  0
  -85.7701   68.7074  103.7902 N   0  0  0  0  0  0  0  0  0  0  0  0
  -87.8126   62.9833  102.3034 C   0  0  0  0  0  2  0  0  0  0  0  0
  -87.3132   63.2553  103.7121 C   0  0  0  0  0  3  0  0  0  0  0  0
  -86.4493   63.3361  101.7429 C   0  0  0  0  0  3  0  0  0  0  0  0
  -86.3772   69.8873  104.0881 C   0  0  0  0  0  3  0  0  0  0  0  0
  -86.1110   67.5526  104.4224 C   0  0  0  0  0  3  0  0  0  0  0  0
  -87.7410   68.7591  105.7237 C   0  0  0  0  0  3  0  0  0  0  0  0
  -86.7613   65.2740  106.1507 N   0  0  0  0  0  2  0  0  0  0  0  0
  -90.5144   64.9622  103.9939 C   0  0  0  0  0  1  0  0  0  0  0  0
  -87.2043   65.0095  105.5331 N   0  0  0  0  0  2  0  0  0  0  0  0
  -87.3792   69.9358  105.0654 C   0  0  0  0  0  0  0  0  0  0  0  0
  -89.6791   63.3798  105.5148 O   0  0  0  0  0  0  0  0  0  0  0  0
  -85.9498   63.6124  103.1469 C   0  0  0  0  0  2  0  0  0  0  0  0
  -87.5124   66.3294  106.1115 C   0  0  0  0  0  0  0  0  0  0  0  0
  -87.7349   72.2323  104.8281 O   0  0  0  0  0  0  0  0  0  0  0  0
  -89.4148   64.2125  104.6618 C   0  0  0  0  0  0  0  0  0  0  0  0
  -87.1085   67.5550  105.4082 C   0  0  0  0  0  0  0  0  0  0  0  0
  -85.8366   62.1845  101.2485 O   0  0  0  0  0  1  0  0  0  0  0  0
  -87.9896   64.4980  104.2897 C   0  0  0  0  0  3  0  0  0  0  0  0
  1 16  2  0
  2  6  2  0
  4  3  1  0
  4 20  1  0
  5 19  1  0
  5 14  1  0
  5  3  1  0
  7 18  2  0
  7  2  1  0
  8 12  2  0
  9 15  2  0
 11 15  1  0
 12  6  1  0
 12  1  1  0
 14  4  1  0
 15 18  1  0
 17 13  2  0
 17 10  1  0
 18  8  1  0
 20 11  1  0
 20 17  1  0
M  RAD  8   3   3   4   2   5   2   6   2   7   2   8   2   9   2  10   2
M  RAD  4  11   2  14   3  19   2  20   2
M  END
$$$$
/tmp/tmpq78oa455
     RDKit          3D

 20 22  0  0  0  0  0  0  0  0999 V2000
  -86.8939   64.2460  105.0310 N   0  0  0  0  0  0  0  0  0  0  0  0
  -87.4474   69.3844  105.3990 C   0  0  0  0  0  0  0  0  0  0  0  0
  -90.4337   64.9042  104.1406 C   0  0  0  0  0  2  0  0  0  0  0  0
  -86.5128   68.8515  104.5003 C   0  0  0  0  0  3  0  0  0  0  0  0
  -87.4026   70.7524  105.6781 C   0  0  0  0  0  3  0  0  0  0  0  0
  -87.9192   65.0287  104.9784 C   0  0  0  0  0  0  0  0  0  0  0  0
  -87.3110   62.8942  104.6708 C   0  0  0  0  0  2  0  0  0  0  0  0
  -85.5824   69.6557  103.9192 N   0  0  0  0  0  0  0  0  0  0  0  0
  -89.7887   66.5462  106.6451 C   0  0  0  0  0  2  0  0  0  0  0  0
  -90.9827   66.5887  105.8183 N   0  0  0  0  0  2  0  0  0  0  0  0
  -85.5279   70.9882  104.1852 C   0  0  0  0  0  0  0  0  0  0  0  0
  -86.4405   71.5621  105.0720 C   0  0  0  0  0  3  0  0  0  0  0  0
  -88.4513   68.5783  106.0327 N   0  0  0  0  0  2  0  0  0  0  0  0
  -87.8086   66.4375  105.2186 N   0  0  0  0  0  0  0  0  0  0  0  0
  -91.2578   65.2309  105.3750 C   0  0  0  0  0  2  0  0  0  0  0  0
  -88.6417   67.1617  105.9088 C   0  0  0  0  0  0  0  0  0  0  0  0
  -89.1094   64.3248  104.5212 C   0  0  0  0  0  0  0  0  0  0  0  0
  -84.4965   71.8345  103.5305 C   0  0  0  0  0  1  0  0  0  0  0  0
  -89.5648   62.0975  103.8470 F   0  0  0  0  0  0  0  0  0  0  0  0
  -88.7572   63.0664  104.3442 C   0  0  0  0  0  0  0  0  0  0  0  0
  1  6  2  0
  2 13  1  0
  2  5  1  0
  3 15  1  0
  4  2  2  0
  6 14  1  0
  7 20  1  0
  7  1  1  0
  8  4  1  0
 10  9  1  0
 11  8  2  0
 11 12  1  0
 12  5  2  0
 14 16  2  0
 15 10  1  0
 16 13  1  0
 16  9  1  0
 17  6  1  0
 17  3  1  0
 18 11  1  0
 19 20  1  0
 20 17  2  0
M  RAD  8   3   3   4   2   5   2   7   3   9   3  10   2  12   2  13   2
M  RAD  2  15   3  18   2
M  END
$$$$
/tmp/tmpmnvony9v
     RDKit          3D

 20 21  0  0  1  0  0  0  0  0999 V2000
  -92.7536   61.8092  105.9099 C   0  0  0  0  0  1  0  0  0  0  0  0
  -90.6572   60.6638  105.2485 C   0  0  0  0  0  2  0  0  0  0  0  0
  -88.0511   66.6647  104.3580 O   0  0  0  0  0  0  0  0  0  0  0  0
  -84.7469   73.3034  103.3228 O   0  0  0  0  0  0  0  0  0  0  0  0
  -90.4118   63.1307  105.0280 C   0  0  0  0  0  3  0  0  0  0  0  0
  -85.2974   71.8324  105.0825 C   0  0  0  0  0  2  0  0  0  0  0  0
  -86.6407   69.8488  105.0401 O   0  0  0  0  0  0  0  0  0  0  0  0
  -86.6186   67.2900  106.1355 C   0  0  0  0  0  3  0  0  0  0  0  0
  -88.6515   63.5286  104.8028 S   0  0  0  0  0  0  0  0  0  0  0  0
  -89.3313   66.1761  104.6311 C   0  0  0  0  0  2  0  0  0  0  0  0
  -92.0185   61.1230  104.7657 C   0  0  0  0  0  3  0  0  0  0  0  0
  -86.4860   71.1318  104.4545 C   0  0  0  0  0  2  0  0  0  0  0  0
  -90.9206   64.3193  104.2377 C   0  0  0  0  0  2  0  0  0  0  0  0
  -87.8283   67.6466  105.3283 C   0  0  0  0  0  3  0  0  0  0  0  0
  -90.7442   61.8353  104.2914 C   0  0  0  0  0  3  0  0  0  0  0  0
  -88.5415   69.3596  103.8287 O   0  0  0  0  0  0  0  0  0  0  0  0
  -87.6824   68.9909  104.6755 C   0  0  0  0  0  0  0  0  0  0  0  0
  -89.5391   64.8503  103.9228 C   0  0  0  0  0  3  0  0  0  0  0  0
  -85.1197   73.1851  104.4794 C   0  0  0  0  0  3  0  0  0  0  0  0
  -86.6104   66.2795  106.8199 O   0  0  0  0  0  0  0  0  0  0  0  0
  3 10  1  0
  4 19  2  0
  5 15  1  0
  5 13  1  0
  6 19  1  0
  7 17  1  0
  7 12  1  0
  8 20  2  0
  9  5  1  0
  9 18  1  0
 11 15  1  0
 11  1  1  0
 11  2  1  0
 12  6  1  0
 14  3  1  0
 14  8  1  0
 15  2  1  0
 16 17  2  0
 17 14  1  0
 18 10  1  0
 18 13  1  0
M  RAD  8   1   2   2   3   5   2   6   3   8   2  10   3  11   2  12   3
M  RAD  5  13   3  14   2  15   2  18   2  19   2
M  END
$$$$
/tmp/tmpz6tfp3z_
     RDKit          3D

 20 21  0  0  1  0  0  0  0  0999 V2000
  -88.9883   63.4620  103.7913 C   0  0  0  0  0  3  0  0  0  0  0  0
  -85.0837   69.7948  105.6638 C   0  0  0  0  0  2  0  0  0  0  0  0
  -87.9183   66.7529  104.6566 C   0  0  0  0  0  3  0  0  0  0  0  0
  -89.0060   64.1001  102.4206 C   0  0  0  0  0  2  0  0  0  0  0  0
  -83.7111   70.2640  105.8264 N   0  0  0  0  0  2  0  0  0  0  0  0
  -90.3208   62.8723  104.1050 C   0  0  0  0  0  0  0  0  0  0  0  0
  -85.1005   68.4035  106.1376 C   0  0  0  0  0  0  0  0  0  0  0  0
  -81.4072   68.9326  105.8669 Cl  0  0  0  0  0  0  0  0  0  0  0  0
  -89.4151   68.7400  104.9240 C   0  0  0  0  0  1  0  0  0  0  0  0
  -90.4562   61.6223  104.1501 O   0  0  0  0  0  0  0  0  0  0  0  0
  -87.8257   65.3468  104.0591 C   0  0  0  0  0  3  0  0  0  0  0  0
  -87.1778   66.8399  105.9577 C   0  0  0  0  0  0  0  0  0  0  0  0
  -83.8041   67.9799  106.6700 C   0  0  0  0  0  2  0  0  0  0  0  0
  -88.2059   65.3554  102.5944 C   0  0  0  0  0  2  0  0  0  0  0  0
  -82.9881   69.2584  106.6131 C   0  0  0  0  0  3  0  0  0  0  0  0
  -87.6232   66.0754  107.1583 C   0  0  0  0  0  1  0  0  0  0  0  0
  -89.3639   67.2294  104.7943 C   0  0  0  0  0  2  0  0  0  0  0  0
  -91.4182   63.6948  104.3298 O   0  0  0  0  0  1  0  0  0  0  0  0
  -86.1384   67.6210  106.0491 C   0  0  0  0  0  0  0  0  0  0  0  0
  -88.6563   64.4405  104.7399 O   0  0  0  0  0  0  0  0  0  0  0  0
  1 20  1  0
  1  6  1  0
  2  5  1  0
  3 17  1  0
  3 12  1  0
  4  1  1  0
  6 18  1  0
  7 19  2  0
  7  2  1  0
 10  6  2  0
 11 20  1  0
 11  3  1  0
 12 16  1  0
 13  7  1  0
 13 15  1  0
 14  4  1  0
 14 11  1  0
 15  5  1  0
 15  8  1  0
 17  9  1  0
 19 12  2  0
M  RAD  8   1   2   2   3   3   2   4   3   5   2   9   2  11   2  13   3
M  RAD  5  14   3  15   2  16   2  17   3  18   2
M  END
$$$$
/tmp/tmpt2u65udm
     RDKit          3D

 20 21  0  0  1  0  0  0  0  0999 V2000
  -88.8934   63.9255  104.0357 C   0  0  0  0  0  0  0  0  0  0  0  0
  -87.2179   69.6346  105.5765 O   0  0  0  0  0  0  0  0  0  0  0  0
  -88.0992   67.4579  105.2362 C   0  0  0  0  0  0  0  0  0  0  0  0
  -88.6125   63.8550  102.7251 C   0  0  0  0  0  3  0  0  0  0  0  0
  -89.7979   65.3297  105.8994 C   0  0  0  0  0  3  0  0  0  0  0  0
  -88.2723   61.5825  104.5942 N   0  0  0  0  0  2  0  0  0  0  0  0
  -88.0781   66.2715  104.4903 C   0  0  0  0  0  3  0  0  0  0  0  0
  -82.9377   68.3879  105.7655 C   0  0  0  0  0  2  0  0  0  0  0  0
  -88.5453   62.2082  105.9035 C   0  0  0  0  0  2  0  0  0  0  0  0
  -89.2757   62.6466  104.7238 C   0  0  1  0  0  0  0  0  0  0  0  0
  -88.9809   67.5671  106.3196 C   0  0  0  0  0  3  0  0  0  0  0  0
  -87.2025   68.5770  104.8916 C   0  0  0  0  0  0  0  0  0  0  0  0
  -89.8264   66.5065  106.6510 C   0  0  0  0  0  3  0  0  0  0  0  0
  -83.9654   68.8263  104.7404 C   0  0  0  0  0  2  0  0  0  0  0  0
  -86.0752   68.4678  103.4982 S   0  0  0  0  0  0  0  0  0  0  0  0
  -90.5750   62.1609  104.5802 O   0  0  0  0  0  1  0  0  0  0  0  0
  -84.8325   67.7697  104.4573 O   0  0  0  0  0  0  0  0  0  0  0  0
  -88.9301   65.2008  104.8041 C   0  0  0  0  0  0  0  0  0  0  0  0
  -88.2904   65.0182  101.8473 C   0  0  0  0  0  1  0  0  0  0  0  0
  -82.1036   67.4155  105.2141 O   0  0  0  0  0  1  0  0  0  0  0  0
  1 10  1  0
  1 18  1  0
  3 12  1  0
  3 11  2  0
  4  1  2  0
  5 13  2  0
  6 10  1  0
  6  9  1  0
  7 18  2  0
  7  3  1  0
 10  9  1  0
 10 16  1  1
 12  2  2  0
 13 11  1  0
 14 17  1  0
 14  8  1  0
 15 12  1  0
 15 17  1  0
 18  5  1  0
 19  4  1  0
 20  8  1  0
M  RAD  8   4   2   5   2   6   2   7   2   8   3   9   3  11   2  13   2
M  RAD  4  14   3  16   2  19   2  20   2
M  END
$$$$
/tmp/tmpeha10ifh
     RDKit          3D

 20 22  0  0  1  0  0  0  0  0999 V2000
  -85.0962   69.5030  105.4349 S   0  0  0  0  0  0  0  0  0  0  0  0
  -89.6960   66.5720  105.4840 C   0  0  0  0  0  0  0  0  0  0  0  0
  -91.1149   64.5028  104.2035 C   0  0  0  0  0  3  0  0  0  0  0  0
  -88.9363   67.6891  106.1497 C   0  0  0  0  0  2  0  0  0  0  0  0
  -84.9261   67.1978  104.6468 O   0  0  0  0  0  0  0  0  0  0  0  0
  -84.0393   68.2799  104.6297 C   0  0  1  0  0  0  0  0  0  0  0  0
  -90.9957   66.7965  104.9811 C   0  0  0  0  0  0  0  0  0  0  0  0
  -85.9455   67.9052  105.2990 C   0  0  0  0  0  3  0  0  0  0  0  0
  -89.2660   62.9906  104.5528 C   0  0  0  0  0  3  0  0  0  0  0  0
  -88.3381   68.6458  105.1228 C   0  0  0  0  0  2  0  0  0  0  0  0
  -87.9852   62.7347  105.0487 C   0  0  0  0  0  3  0  0  0  0  0  0
  -87.2681   63.7459  105.6926 C   0  0  0  0  0  3  0  0  0  0  0  0
  -91.6917   65.7644  104.3465 C   0  0  0  0  0  3  0  0  0  0  0  0
  -91.6658   68.1232  105.1111 C   0  0  0  0  0  1  0  0  0  0  0  0
  -87.8287   65.0170  105.8415 C   0  0  0  0  0  3  0  0  0  0  0  0
  -89.8341   64.2594  104.6979 C   0  0  0  0  0  0  0  0  0  0  0  0
  -87.1602   68.0201  104.3875 C   0  0  0  0  0  2  0  0  0  0  0  0
  -89.1134   65.2927  105.3456 C   0  0  0  0  0  0  0  0  0  0  0  0
  -83.7255   68.6475  103.3341 F   0  0  0  0  0  0  0  0  0  0  0  0
  -82.9072   68.0095  105.3762 F   0  0  0  0  0  0  0  0  0  0  0  0
  1  6  1  0
  1  8  1  0
  2  7  2  0
  2  4  1  0
  3 13  2  0
  6 20  1  1
  6  5  1  0
  7 14  1  0
  8 17  1  0
  8  5  1  0
  9 16  2  0
 10  4  1  0
 11 12  2  0
 11  9  1  0
 12 15  1  0
 13  7  1  0
 15 18  2  0
 16 18  1  0
 16  3  1  0
 17 10  1  0
 18  2  1  0
 19  6  1  0
M  RAD  8   3   2   4   3   8   2   9   2  10   3  11   2  12   2  13   2
M  RAD  3  14   2  15   2  17   3
M  END
$$$$

     RDKit          3D

 10 11  0  0  0  0  0  0  0  0999 V2000
  -91.4856   64.4351  105.2962 C   0  0  0  0  0  2  0  0  0  0  0  0
  -92.6584   68.0474  105.6665 C   0  0  0  0  0  3  0  0  0  0  0  0
  -90.3209   67.8644  105.0049 C   0  0  0  0  0  0  0  0  0  0  0  0
  -91.4344   68.6574  105.3277 C   0  0  0  0  0  3  0  0  0  0  0  0
  -90.1409   64.1736  104.9138 O   0  0  0  0  0  0  0  0  0  0  0  0
  -91.6395   65.8951  105.3555 C   0  0  0  0  0  0  0  0  0  0  0  0
  -89.0786   68.4679  104.6609 N   0  0  0  0  0  1  0  0  0  0  0  0
  -89.4808   65.4217  104.7412 C   0  0  0  0  0  2  0  0  0  0  0  0
  -90.4668   66.4752  105.0309 C   0  0  0  0  0  0  0  0  0  0  0  0
  -92.7691   66.6462  105.6825 C   0  0  0  0  0  3  0  0  0  0  0  0
  1  6  1  0
  2 10  1  0
  3  4  1  0
  4  2  2  0
  5  1  1  0
  6 10  2  0
  7  3  1  0
  8  9  1  0
  8  5  1  0
  9  3  2  0
  9  6  1  0
M  RAD  6   1   3   2   2   4   2   7   3   8   3  10   2
M  END
$$$$
/tmp/tmpbt0gooo7
     RDKit          3D

 20 21  0  0  1  0  0  0  0  0999 V2000
  -84.5950   69.6238  104.3310 C   0  0  0  0  0  0  0  0  0  0  0  0
  -87.0221   62.5043  101.2922 C   0  0  0  0  0  2  0  0  0  0  0  0
  -85.2554   69.8016  105.6561 C   0  0  0  0  0  2  0  0  0  0  0  0
  -88.0015   64.9787  105.2921 C   0  0  0  0  0  2  0  0  0  0  0  0
  -86.9340   64.5209  103.1496 C   0  0  0  0  0  0  0  0  0  0  0  0
  -86.6515   63.6604  102.2136 C   0  0  0  0  0  0  0  0  0  0  0  0
  -88.9760   69.2347  104.9341 C   0  0  0  0  0  2  0  0  0  0  0  0
  -90.4749   65.7190  105.1075 C   0  0  0  0  0  3  0  0  0  0  0  0
  -84.1357   70.6216  103.7171 O   0  0  0  0  0  0  0  0  0  0  0  0
  -89.7537   68.0119  104.4835 C   0  0  0  0  0  2  0  0  0  0  0  0
  -86.7301   70.1304  105.4876 C   0  0  0  0  0  2  0  0  0  0  0  0
  -91.4188   63.6227  106.0064 C   0  0  0  0  0  1  0  0  0  0  0  0
  -84.5159   68.3614  103.7581 O   0  0  0  0  0  1  0  0  0  0  0  0
  -87.5062   68.8910  105.0852 C   0  0  0  0  0  2  0  0  0  0  0  0
  -87.2186   65.3822  104.0872 C   0  0  0  0  0  3  0  0  0  0  0  0
  -89.9159   67.0346  105.6334 C   0  0  0  0  0  2  0  0  0  0  0  0
  -90.3055   64.6378  106.1561 C   0  0  0  0  0  3  0  0  0  0  0  0
  -85.6855   63.0004  101.2355 C   0  0  0  0  0  3  0  0  0  0  0  0
  -89.4359   64.6072  104.9150 C   0  0  0  0  0  3  0  0  0  0  0  0
  -84.8306   62.1606  101.9477 O   0  0  0  0  0  1  0  0  0  0  0  0
  1 13  1  0
  1  3  1  0
  2  6  1  0
  3 11  1  0
  5 15  2  0
  6  5  2  0
  8 16  1  0
  9  1  2  0
 10 16  1  0
 10  7  1  0
 14 11  1  0
 14  7  1  0
 15  4  1  0
 17 12  1  0
 17  8  1  0
 18  2  1  0
 18 20  1  0
 18  6  1  0
 19  4  1  0
 19 17  1  0
 19  8  1  0
M  RAD  8   2   3   3   3   4   3   7   3   8   2  10   3  11   3  12   2
M  RAD  8  13   2  14   3  15   2  16   3  17   2  18   2  19   2  20   2
M  END
$$$$
/tmp/tmp9bsksaxc
     RDKit          3D

 20 24  0  0  1  0  0  0  0  0999 V2000
  -83.4041   69.4738  106.1055 C   0  0  0  0  0  3  0  0  0  0  0  0
  -87.0617   68.0067  104.3769 C   0  0  0  0  0  3  0  0  0  0  0  0
  -91.1208   62.5268  104.3195 C   0  0  0  0  0  3  0  0  0  0  0  0
  -84.8697   67.6272  105.5539 C   0  0  0  0  0  3  0  0  0  0  0  0
  -91.4365   65.8952  105.4986 C   0  0  0  0  0  0  0  0  0  0  0  0
  -85.5174   69.8946  105.0012 C   0  0  0  0  0  3  0  0  0  0  0  0
  -92.3838   62.8126  104.3605 N   0  0  0  0  0  0  0  0  0  0  0  0
  -93.4646   64.9506  105.3489 C   0  0  0  0  0  2  0  0  0  0  0  0
  -91.3098   64.7864  104.5674 C   0  0  0  0  0  0  0  0  0  0  0  0
  -88.1841   66.1101  104.5367 O   0  0  0  0  0  0  0  0  0  0  0  0
  -89.1846   66.7081  105.4459 C   0  0  0  0  0  0  0  0  0  0  0  0
  -90.2543   63.7442  104.4725 C   0  0  0  0  0  2  0  0  0  0  0  0
  -84.3232   70.3693  105.5516 C   0  0  0  0  0  3  0  0  0  0  0  0
  -88.2475   68.5915  104.9981 C   0  0  0  0  0  2  0  0  0  0  0  0
  -83.6758   68.1028  106.1040 C   0  0  0  0  0  3  0  0  0  0  0  0
  -85.8059   68.5218  105.0147 C   0  0  0  0  0  0  0  0  0  0  0  0
  -87.8622   67.1505  105.3884 C   0  0  0  0  0  0  0  0  0  0  0  0
  -90.3855   66.7650  105.9284 N   0  0  0  0  0  0  0  0  0  0  0  0
  -92.6464   66.0090  105.9394 N   0  0  0  0  0  0  0  0  0  0  0  0
  -92.4800   64.2189  104.4999 C   0  0  0  0  0  0  0  0  0  0  0  0
  1 13  2  0
  2 17  1  0
  2 16  1  0
  2 14  1  0
  3 12  1  0
  4 16  1  0
  5 19  2  0
  5 18  1  0
  7  3  2  0
  7 20  1  0
  8 19  1  0
  9  5  1  0
 10 11  1  0
 10 17  1  0
 11 18  2  0
 11 17  1  0
 12  9  1  0
 13  6  1  0
 15  4  2  0
 15  1  1  0
 16  6  2  0
 17 14  1  0
 20  8  1  0
 20  9  2  0
M  RAD  8   1   2   2   2   3   2   4   2   6   2   8   3  12   3  13   2
M  RAD  2  14   3  15   2
M  END
$$$$

     RDKit          3D

 13 14  0  0  0  0  0  0  0  0999 V2000
  -82.6845   69.1655  104.6816 C   0  0  0  0  0  1  0  0  0  0  0  0
  -85.0152   70.2588  105.9750 C   0  0  0  0  0  0  0  0  0  0  0  0
  -86.8298   66.2796  104.4965 N   0  0  0  0  0  0  0  0  0  0  0  0
  -83.7329   68.3640  105.2971 N   0  0  0  0  0  0  0  0  0  0  0  0
  -88.0690   66.5781  103.9332 C   0  0  0  0  0  3  0  0  0  0  0  0
  -83.5470   67.0257  105.3835 O   0  0  0  0  0  1  0  0  0  0  0  0
  -85.0833   71.4835  106.1387 O   0  0  0  0  0  0  0  0  0  0  0  0
  -88.8837   67.7542  104.3004 C   0  0  0  0  0  3  0  0  0  0  0  0
  -86.5345   67.2132  105.3932 C   0  0  0  0  0  0  0  0  0  0  0  0
  -88.4978   68.7404  105.2871 C   0  0  0  0  0  3  0  0  0  0  0  0
  -84.9437   68.9597  105.8011 C   0  0  0  0  0  0  0  0  0  0  0  0
  -86.0331   68.0900  106.3722 C   0  0  0  0  0  3  0  0  0  0  0  0
  -87.2867   68.3872  105.7965 C   0  0  0  0  0  0  0  0  0  0  0  0
  2  7  2  0
  3  9  2  0
  4  1  1  0
  4 11  1  0
  5  3  1  0
  5  8  2  0
  6  4  1  0
  8 10  1  0
  9 12  1  0
  9 13  1  0
 10 13  2  0
 11  2  2  0
 12 11  1  0
 12 13  1  0
M  RAD  6   1   2   5   2   6   2   8   2  10   2  12   2
M  END
$$$$

     RDKit          3D

 19 18  0  0  0  0  0  0  0  0999 V2000
  -86.4004   70.9748  106.4005 C   0  0  0  0  0  1  0  0  0  0  0  0
  -84.8606   69.5879  104.8565 C   0  0  0  0  0  0  0  0  0  0  0  0
  -87.8978   67.8150  105.7063 C   0  0  0  0  0  3  0  0  0  0  0  0
  -87.7558   64.0310  104.4781 C   0  0  0  0  0  0  0  0  0  0  0  0
  -88.9819   60.6675  102.1855 C   0  0  0  0  0  1  0  0  0  0  0  0
  -89.8969   61.2697  103.0898 O   0  0  0  0  0  0  0  0  0  0  0  0
  -88.2047   62.9681  103.8013 C   0  0  0  0  0  3  0  0  0  0  0  0
  -90.4297   62.8462  104.6542 O   0  0  0  0  0  0  0  0  0  0  0  0
  -84.3820   67.4494  103.5470 O   0  0  0  0  0  0  0  0  0  0  0  0
  -89.5591   62.3729  103.8772 C   0  0  0  0  0  0  0  0  0  0  0  0
  -87.0137   68.7711  105.6734 C   0  0  0  0  0  0  0  0  0  0  0  0
  -86.4459   64.4429  104.2710 O   0  0  0  0  0  1  0  0  0  0  0  0
  -82.6180   70.4975  104.0319 C   0  0  0  0  0  1  0  0  0  0  0  0
  -84.6131   68.4866  104.1815 C   0  0  0  0  0  0  0  0  0  0  0  0
  -88.6054   64.8088  105.4347 C   0  0  0  0  0  2  0  0  0  0  0  0
  -88.2645   67.1020  104.4519 C   0  0  0  0  0  2  0  0  0  0  0  0
  -83.8768   70.7344  104.8582 C   0  0  0  0  0  2  0  0  0  0  0  0
  -89.2667   65.9946  104.7416 C   0  0  0  0  0  2  0  0  0  0  0  0
  -86.1190   69.7265  105.6345 C   0  0  0  0  0  0  0  0  0  0  0  0
  2 19  1  0
  3 11  2  0
  4  7  2  0
  4 15  1  0
  5  6  1  0
  6 10  1  0
  7 10  1  0
  9 14  2  0
 10  8  2  0
 11 19  2  0
 12  4  1  0
 13 17  1  0
 14  2  2  0
 15 18  1  0
 16  3  1  0
 17  2  1  0
 18 16  1  0
 19  1  1  0
M  RAD  8   1   2   3   2   5   2   7   2  12   2  13   2  15   3  16   3
M  RAD  2  17   3  18   3
M  END
$$$$
/tmp/tmprbfnmtos
     RDKit          3D

 20 22  0  0  1  0  0  0  0  0999 V2000
  -91.2315   68.2507  106.3986 C   0  0  0  0  0  3  0  0  0  0  0  0
  -90.1001   70.2255  106.9925 O   0  0  0  0  0  1  0  0  0  0  0  0
  -89.0686   64.2870  104.1031 C   0  0  0  0  0  0  0  0  0  0  0  0
  -83.2104   69.4259  105.3998 N   0  0  0  0  0  1  0  0  0  0  0  0
  -90.1153   68.9796  106.3754 C   0  0  0  0  0  0  0  0  0  0  0  0
  -87.8085   69.1501  105.6569 C   0  0  0  0  0  0  0  0  0  0  0  0
  -89.2580   62.9770  103.6143 N   0  0  0  0  0  2  0  0  0  0  0  0
  -86.9732   63.5830  103.2598 C   0  0  0  0  0  2  0  0  0  0  0  0
  -88.0000   62.4561  103.1186 C   0  0  0  0  0  2  0  0  0  0  0  0
  -91.3439   66.9023  105.7295 C   0  0  0  0  0  2  0  0  0  0  0  0
  -83.7121   68.1343  105.1690 N   0  0  0  0  0  0  0  0  0  0  0  0
  -86.6987   69.8341  105.5962 C   0  0  0  0  0  3  0  0  0  0  0  0
  -88.9328   67.0970  105.1590 C   0  0  0  0  0  3  0  0  0  0  0  0
  -83.9750   68.0386  103.7249 C   0  0  0  0  0  2  0  0  0  0  0  0
  -85.1022   68.1797  104.6384 C   0  0  0  0  0  3  0  0  0  0  0  0
  -90.0825   64.9823  104.6319 C   0  0  0  0  0  3  0  0  0  0  0  0
  -88.9111   68.4545  105.7113 C   0  0  0  0  0  0  0  0  0  0  0  0
  -85.7048   69.5836  104.5119 C   0  0  0  0  0  2  0  0  0  0  0  0
  -90.0459   66.3534  105.1827 C   0  0  0  0  0  0  0  0  0  0  0  0
  -87.6674   64.7464  103.9612 C   0  0  0  0  0  2  0  0  0  0  0  0
  3 16  2  0
  5  1  2  0
  5  2  1  0
  6 12  2  0
  7  3  1  0
  8  9  1  0
  8 20  1  0
  9  7  1  0
 10  1  1  0
 11 15  1  0
 11  4  1  0
 13 19  2  0
 13 17  1  0
 14 11  1  0
 14 15  1  0
 15 18  1  0
 16 19  1  0
 17  6  2  0
 17  5  1  0
 18 12  1  0
 19 10  1  0
 20  3  1  0
M  RAD  8   1   2   2   2   4   3   7   2   8   3   9   3  10   3  12   2
M  RAD  6  13   2  14   3  15   2  16   2  18   3  20   3
M  END
$$$$
/tmp/tmp851k1gpo
     RDKit          3D

 20 20  0  0  1  0  0  0  0  0999 V2000
  -88.6696   62.6347  104.0542 C   0  0  0  0  0  2  0  0  0  0  0  0
  -88.7679   68.8090  104.4353 C   0  0  0  0  0  2  0  0  0  0  0  0
  -87.9688   69.1022  105.6943 C   0  0  0  0  0  2  0  0  0  0  0  0
  -90.3545   61.6312  101.7482 N   0  0  0  0  0  1  0  0  0  0  0  0
  -84.6478   61.3833  101.6604 O   0  0  0  0  0  1  0  0  0  0  0  0
  -85.9673   61.7969  101.5424 C   0  0  0  0  0  0  0  0  0  0  0  0
  -88.4058   66.3459  104.3295 C   0  0  0  0  0  2  0  0  0  0  0  0
  -89.4300   67.4468  104.5343 C   0  0  0  0  0  2  0  0  0  0  0  0
  -88.1889   62.2804  102.6554 C   0  0  0  0  0  3  0  0  0  0  0  0
  -86.7906   61.8748  102.7074 N   0  0  0  0  0  2  0  0  0  0  0  0
  -87.2933   70.4279  105.5800 C   0  0  0  0  0  0  0  0  0  0  0  0
  -88.0651   63.9519  104.5028 C   0  0  0  0  0  3  0  0  0  0  0  0
  -87.9553   71.4539  105.5490 O   0  0  0  0  0  0  0  0  0  0  0  0
  -86.4260   62.1045  100.4102 O   0  0  0  0  0  0  0  0  0  0  0  0
  -89.0807   64.9960  104.4519 C   0  0  0  0  0  3  0  0  0  0  0  0
  -83.8129   71.0760  104.2008 C   0  0  0  0  0  1  0  0  0  0  0  0
  -85.3256   71.0195  104.2111 C   0  0  0  0  0  2  0  0  0  0  0  0
  -89.0307   61.1446  102.0965 C   0  0  0  0  0  2  0  0  0  0  0  0
  -88.7229   64.3892  105.7422 N   0  0  0  0  0  2  0  0  0  0  0  0
  -85.8025   70.4954  105.5520 C   0  0  0  0  0  2  0  0  0  0  0  0
  2  3  1  0
  3 11  1  0
  4 18  1  0
  5  6  1  0
  6 10  1  0
  7  8  1  0
  8  2  1  0
  9 18  1  0
  9  1  1  0
 10  9  1  0
 11 13  2  0
 11 20  1  0
 12  1  1  0
 12 19  1  0
 14  6  2  0
 15  7  1  0
 15 12  1  0
 15 19  1  0
 16 17  1  0
 17 20  1  0
M  RAD  8   1   3   2   3   3   3   4   3   5   2   7   3   8   3   9   2
M  RAD  8  10   2  12   2  15   2  16   2  17   3  18   3  19   2  20   3
M  END
$$$$

     RDKit          3D

 19 19  0  0  0  0  0  0  0  0999 V2000
  -89.0966   64.2169  102.2701 C   0  0  0  0  0  0  0  0  0  0  0  0
  -88.5600   68.8274  107.5228 O   0  0  0  0  0  0  0  0  0  0  0  0
  -85.9466   67.2317  106.4825 N   0  0  0  0  0  2  0  0  0  0  0  0
  -88.6196   69.2464  108.8776 C   0  0  0  0  0  1  0  0  0  0  0  0
  -85.6312   69.3123  105.2687 C   0  0  0  0  0  2  0  0  0  0  0  0
  -88.6833   66.3210  106.1264 N   0  0  0  0  0  2  0  0  0  0  0  0
  -91.0287   60.9680  102.6530 C   0  0  0  0  0  1  0  0  0  0  0  0
  -89.0348   65.3344  103.2571 C   0  0  0  0  0  2  0  0  0  0  0  0
  -88.1622   69.2170  105.0788 C   0  0  0  0  0  2  0  0  0  0  0  0
  -87.8667   65.1322  104.2069 C   0  0  0  0  0  2  0  0  0  0  0  0
  -85.1344   68.4447  106.4203 C   0  0  0  0  0  2  0  0  0  0  0  0
  -86.6046   67.1535  105.1892 C   0  0  0  0  0  3  0  0  0  0  0  0
  -87.9919   70.9220  106.7372 O   0  0  0  0  0  0  0  0  0  0  0  0
  -88.2386   69.7102  106.4923 C   0  0  0  0  0  0  0  0  0  0  0  0
  -86.8159   68.5721  104.6880 C   0  0  0  0  0  3  0  0  0  0  0  0
  -87.8063   66.2501  105.1929 C   0  0  0  0  0  0  0  0  0  0  0  0
  -89.8275   61.8893  102.6488 C   0  0  0  0  0  2  0  0  0  0  0  0
  -88.2133   64.0840  101.4371 O   0  0  0  0  0  0  0  0  0  0  0  0
  -90.2679   63.2919  102.2761 C   0  0  0  0  0  2  0  0  0  0  0  0
  1 19  1  0
  2  4  1  0
  3 11  1  0
  7 17  1  0
  8  1  1  0
  8 10  1  0
  9 14  1  0
 10 16  1  0
 11  5  1  0
 12 16  1  0
 12  3  1  0
 12 15  1  0
 14  2  1  0
 14 13  2  0
 15  5  1  0
 15  9  1  0
 16  6  2  0
 18  1  2  0
 19 17  1  0
M  RAD  8   3   2   4   2   5   3   6   2   7   2   8   3   9   3  10   3
M  RAD  5  11   3  12   2  15   2  17   3  19   3
M  END
$$$$
/tmp/tmpkt108h_q
     RDKit          3D

 20 20  0  0  1  0  0  0  0  0999 V2000
  -89.8681   65.1493  107.6325 N   0  0  0  0  0  2  0  0  0  0  0  0
  -88.4495   67.2940  104.2826 C   0  0  0  0  0  0  0  0  0  0  0  0
  -85.2688   70.3678  104.9650 C   0  0  0  0  0  0  0  0  0  0  0  0
  -90.3231   64.1425  104.8458 C   0  0  0  0  0  0  0  0  0  0  0  0
  -88.7612   68.5158  103.4882 C   0  0  0  0  0  1  0  0  0  0  0  0
  -87.3087   67.2162  105.1555 N   0  0  0  0  0  2  0  0  0  0  0  0
  -86.2939   68.2041  105.3864 C   0  0  0  0  0  0  0  0  0  0  0  0
  -88.0043   64.2730  104.3822 O   0  0  0  0  0  1  0  0  0  0  0  0
  -89.0831   64.9771  104.9201 C   0  0  0  0  0  3  0  0  0  0  0  0
  -84.2649   70.0765  105.8922 C   0  0  0  0  0  3  0  0  0  0  0  0
  -86.2786   69.4348  104.7129 C   0  0  0  0  0  3  0  0  0  0  0  0
  -85.2832   67.9207  106.3123 C   0  0  0  0  0  3  0  0  0  0  0  0
  -85.2630   71.6127  104.2776 N   0  0  0  0  0  1  0  0  0  0  0  0
  -89.2807   66.2596  104.1764 C   0  0  0  0  0  3  0  0  0  0  0  0
  -90.8726   64.4065  107.3025 C   0  0  0  0  0  3  0  0  0  0  0  0
  -92.0728   62.3411  102.1897 C   0  0  0  0  0  2  0  0  0  0  0  0
  -90.6728   63.6044  103.5989 O   0  0  0  0  0  0  0  0  0  0  0  0
  -84.2720   68.8524  106.5660 C   0  0  0  0  0  3  0  0  0  0  0  0
  -91.8046   62.8153  103.3958 C   0  0  0  0  0  3  0  0  0  0  0  0
  -91.0900   63.9153  105.9274 C   0  0  0  0  0  3  0  0  0  0  0  0
  2  6  1  0
  2  5  1  0
  3 11  2  0
  3 13  1  0
  4 20  2  0
  6  7  1  0
  7 11  1  0
  9  8  1  0
  9  4  1  0
  9 14  1  0
 10  3  1  0
 12  7  2  0
 14  2  2  0
 15  1  2  0
 16 19  2  0
 17  4  1  0
 18 10  2  0
 18 12  1  0
 19 17  1  0
 20 15  1  0
M  RAD  8   1   2   5   2   6   2   8   2   9   2  10   2  11   2  12   2
M  RAD  7  13   3  14   2  15   2  16   3  18   2  19   2  20   2
M  END
$$$$
/tmp/tmpma62s6w8
     RDKit          3D

 20 22  0  0  1  0  0  0  0  0999 V2000
  -88.8471   68.6685  106.2266 N   0  0  0  0  0  2  0  0  0  0  0  0
  -87.5703   67.8204  103.7429 N   0  0  0  0  0  0  0  0  0  0  0  0
  -88.7491   67.1375  104.3272 C   0  0  0  0  0  3  0  0  0  0  0  0
  -89.6793   62.0690  106.7089 O   0  0  0  0  0  0  0  0  0  0  0  0
  -90.5405   63.8346  104.2309 C   0  0  0  0  0  3  0  0  0  0  0  0
  -87.1329   67.2142  102.4713 C   0  0  0  0  0  2  0  0  0  0  0  0
  -90.3923   65.3307  104.0490 C   0  0  0  0  0  3  0  0  0  0  0  0
  -92.3286   63.3989  104.2113 S   0  0  0  0  0  0  0  0  0  0  0  0
  -84.2661   66.8472  105.7784 O   0  0  0  0  0  0  0  0  0  0  0  0
  -88.8035   69.1145  107.5845 C   0  0  0  0  0  3  0  0  0  0  0  0
  -88.6395   68.2707  108.5969 C   0  0  0  0  0  2  0  0  0  0  0  0
  -91.0880   63.5602  105.5588 C   0  0  0  0  0  3  0  0  0  0  0  0
  -88.7216   67.2689  105.8442 C   0  0  0  0  0  2  0  0  0  0  0  0
  -89.8146   65.6041  102.7257 N   0  0  0  0  0  2  0  0  0  0  0  0
  -90.6647   62.2022  106.0020 C   0  0  0  0  0  3  0  0  0  0  0  0
  -85.1379   67.7380  103.7767 C   0  0  0  0  0  2  0  0  0  0  0  0
  -88.9757   65.6663  103.9325 C   0  0  0  0  0  3  0  0  0  0  0  0
  -86.4086   66.9129  103.7056 C   0  0  0  0  0  3  0  0  0  0  0  0
  -84.6664   67.8390  105.1902 C   0  0  0  0  0  0  0  0  0  0  0  0
  -84.6643   69.1603  105.8773 C   0  0  0  0  0  1  0  0  0  0  0  0
  1 13  1  0
  1 10  1  0
  2 18  1  0
  3 13  1  0
  3  2  1  0
  4 15  2  0
  5  8  1  0
  6  2  1  0
  6 18  1  0
  7 14  1  0
  7 17  1  0
  7  5  1  0
  9 19  2  0
 10 11  2  0
 12 15  1  0
 12  5  1  0
 12  8  1  0
 14 17  1  0
 17  3  1  0
 18 16  1  0
 19 20  1  0
 19 16  1  0
M  RAD  8   1   2   3   2   5   2   6   3   7   2  10   2  11   3  12   2
M  RAD  7  13   3  14   2  15   2  16   3  17   2  18   2  20   2
M  END
$$$$
/tmp/tmppxm8hqsf
     RDKit          3D

 20 21  0  0  1  0  0  0  0  0999 V2000
  -87.5100   63.8385  103.7061 C   0  0  0  0  0  2  0  0  0  0  0  0
  -85.3856   68.7481  107.0610 C   0  0  0  0  0  3  0  0  0  0  0  0
  -88.3471   62.5619  103.6697 C   0  0  0  0  0  2  0  0  0  0  0  0
  -89.8019   62.9634  103.8392 C   0  0  1  0  0  0  0  0  0  0  0  0
  -91.0085   65.2255  104.1914 C   0  0  0  0  0  0  0  0  0  0  0  0
  -85.6502   68.2644  105.7752 C   0  0  0  0  0  0  0  0  0  0  0  0
  -91.3122   65.1413  105.4110 O   0  0  0  0  0  0  0  0  0  0  0  0
  -90.6595   62.2812  102.7921 C   0  0  0  0  0  1  0  0  0  0  0  0
  -91.5655   66.2271  102.0267 C   0  0  0  0  0  2  0  0  0  0  0  0
  -88.4430   64.9888  104.0502 C   0  0  0  0  0  3  0  0  0  0  0  0
  -84.0815   69.1023  107.4203 C   0  0  0  0  0  3  0  0  0  0  0  0
  -87.3179   67.8195  105.3126 S   0  0  0  0  0  0  0  0  0  0  0  0
  -88.3437   65.2862  105.5462 C   0  0  0  0  0  2  0  0  0  0  0  0
  -83.0419   68.9753  106.4936 C   0  0  0  0  0  3  0  0  0  0  0  0
  -90.2332   62.6017  105.1175 O   0  0  0  0  0  1  0  0  0  0  0  0
  -84.6103   68.1411  104.8473 C   0  0  0  0  0  3  0  0  0  0  0  0
  -83.3064   68.4953  105.2070 C   0  0  0  0  0  3  0  0  0  0  0  0
  -91.8238   66.0799  103.3200 C   0  0  0  0  0  3  0  0  0  0  0  0
  -87.0984   66.0984  105.8575 C   0  0  0  0  0  2  0  0  0  0  0  0
  -89.8167   64.4731  103.6473 C   0  0  0  0  0  3  0  0  0  0  0  0
  1  3  1  0
  1 10  1  0
  3  4  1  0
  4  8  1  6
  4 20  1  0
  4 15  1  0
  5  7  2  0
  6 12  1  0
  6  2  2  0
  9 18  2  0
 10 13  1  0
 10 20  1  0
 11  2  1  0
 13 19  1  0
 14 11  2  0
 16  6  1  0
 17 16  2  0
 17 14  1  0
 18  5  1  0
 19 12  1  0
 20  5  1  0
M  RAD  8   1   3   2   2   3   3   8   2   9   3  10   2  11   2  13   3
M  RAD  7  14   2  15   2  16   2  17   2  18   2  19   3  20   2
M  END
$$$$

     RDKit          3D

 11 12  0  0  0  0  0  0  0  0999 V2000
  -86.8116   68.6599  104.7862 C   0  0  0  0  0  0  0  0  0  0  0  0
  -84.7324   67.6903  105.7055 C   0  0  0  0  0  2  0  0  0  0  0  0
  -89.2233   68.0930  105.4282 C   0  0  0  0  0  3  0  0  0  0  0  0
  -85.5373   68.8105  105.1370 C   0  0  0  0  0  3  0  0  0  0  0  0
  -83.3449   69.0257  107.1174 O   0  0  0  0  0  0  0  0  0  0  0  0
  -88.7494   69.1958  104.4963 C   0  0  0  0  0  0  0  0  0  0  0  0
  -87.6082   69.7642  104.2529 C   0  0  0  0  0  3  0  0  0  0  0  0
  -82.0216   69.4400  107.2605 C   0  0  0  0  0  1  0  0  0  0  0  0
  -83.3252   68.1630  106.0208 C   0  0  0  0  0  2  0  0  0  0  0  0
  -87.7672   67.0967  104.9739 S   0  0  0  0  0  0  0  0  0  0  0  0
  -90.1779   68.7389  104.5814 C   0  0  0  0  0  2  0  0  0  0  0  0
  1  4  2  0
  1  7  1  0
  2  4  1  0
  3 11  1  0
  3  6  1  0
  5  8  1  0
  6  7  2  0
  9  5  1  0
  9  2  1  0
 10  3  1  0
 10  1  1  0
 11  6  1  0
M  RAD  7   2   3   3   2   4   2   7   2   8   2   9   3  11   3
M  END
$$$$

     RDKit          3D

 13 13  0  0  0  0  0  0  0  0999 V2000
  -87.9468   62.4284  101.4626 C   0  0  0  0  0  0  0  0  0  0  0  0
  -86.7502   64.4602  101.7909 C   0  0  0  0  0  3  0  0  0  0  0  0
  -86.9560   63.3883  101.0924 N   0  0  0  0  0  0  0  0  0  0  0  0
  -87.2367   65.9295  103.6885 O   0  0  0  0  0  1  0  0  0  0  0  0
  -88.7849   62.6241  102.6904 C   0  0  0  0  0  2  0  0  0  0  0  0
  -92.4272   62.5287  104.8690 C   0  0  0  0  0  1  0  0  0  0  0  0
  -87.5270   64.7525  103.0070 C   0  0  0  0  0  0  0  0  0  0  0  0
  -89.1151   65.2271  105.3413 O   0  0  0  0  0  0  0  0  0  0  0  0
  -88.4873   63.9048  103.4418 C   0  0  0  0  0  0  0  0  0  0  0  0
  -88.1178   61.4043  100.7525 O   0  0  0  0  0  0  0  0  0  0  0  0
  -91.5638   63.5649  104.5170 O   0  0  0  0  0  0  0  0  0  0  0  0
  -90.3481   63.2238  105.1092 C   0  0  0  0  0  2  0  0  0  0  0  0
  -89.2880   64.1774  104.6662 C   0  0  0  0  0  0  0  0  0  0  0  0
  1  5  1  0
  2  7  1  0
  3  1  1  0
  3  2  2  0
  5  9  1  0
  7  9  2  0
  7  4  1  0
  9 13  1  0
 10  1  2  0
 11  6  1  0
 12 11  1  0
 13 12  1  0
 13  8  2  0
M  RAD  5   2   2   4   2   5   3   6   2  12   3
M  END
$$$$
/tmp/tmpzwponwsi
     RDKit          3D

 20 23  0  0  0  0  0  0  0  0999 V2000
  -90.6869   63.3183  104.4667 C   0  0  0  0  0  3  0  0  0  0  0  0
  -88.6175   67.7017  105.4230 C   0  0  0  0  0  0  0  0  0  0  0  0
  -84.3477   67.9520  105.0754 C   0  0  0  0  0  3  0  0  0  0  0  0
  -86.6597   68.7778  105.5173 C   0  0  0  0  0  0  0  0  0  0  0  0
  -83.2753   70.4714  105.6363 C   0  0  0  0  0  3  0  0  0  0  0  0
  -84.6557   70.2656  105.7157 C   0  0  0  0  0  3  0  0  0  0  0  0
  -82.4314   69.4175  105.2764 C   0  0  0  0  0  3  0  0  0  0  0  0
  -88.2590   63.3334  104.2355 C   0  0  0  0  0  3  0  0  0  0  0  0
  -82.9673   68.1579  104.9960 C   0  0  0  0  0  3  0  0  0  0  0  0
  -87.3200   67.5088  105.2464 C   0  0  0  0  0  3  0  0  0  0  0  0
  -88.9187   69.1076  105.8232 C   0  0  0  0  0  2  0  0  0  0  0  0
  -91.7497   65.5713  105.1643 C   0  0  0  0  0  2  0  0  0  0  0  0
  -88.2223   64.6912  104.5903 C   0  0  0  0  0  3  0  0  0  0  0  0
  -89.4305   65.3334  104.8768 C   0  0  0  0  0  0  0  0  0  0  0  0
  -89.4876   62.6490  104.1740 C   0  0  0  0  0  3  0  0  0  0  0  0
  -85.2035   69.0035  105.4358 C   0  0  0  0  0  0  0  0  0  0  0  0
  -87.5514   69.7038  105.8480 C   0  0  0  0  0  3  0  0  0  0  0  0
  -90.6227   64.6668  104.8164 C   0  0  0  0  0  0  0  0  0  0  0  0
  -91.0507   66.9178  105.4519 C   0  0  0  0  0  2  0  0  0  0  0  0
  -89.6204   66.6882  105.2527 N   0  0  0  0  0  0  0  0  0  0  0  0
  1 18  2  0
  2 11  1  0
  3 16  2  0
  4 16  1  0
  4 17  2  0
  5  6  2  0
  7  5  1  0
  8 15  2  0
  8 13  1  0
  9  3  1  0
  9  7  2  0
 10  2  2  0
 10  4  1  0
 11 17  1  0
 13 14  2  0
 14 20  1  0
 14 18  1  0
 15  1  1  0
 16  6  1  0
 18 12  1  0
 19 12  1  0
 20 19  1  0
 20  2  1  0
M  RAD  8   1   2   3   2   5   2   6   2   7   2   8   2   9   2  10   2
M  RAD  6  11   3  12   3  13   2  15   2  17   2  19   3
M  END
$$$$
/tmp/tmpshg07akx
     RDKit          3D

 20 20  0  0  1  0  0  0  0  0999 V2000
  -85.0241   67.5598  105.0460 C   0  0  0  0  0  3  0  0  0  0  0  0
  -91.4684   64.6603  104.9182 C   0  0  0  0  0  0  0  0  0  0  0  0
  -87.8583   67.1061  105.2332 C   0  0  0  0  0  3  0  0  0  0  0  0
  -83.0825   69.5654  104.9929 C   0  0  0  0  0  3  0  0  0  0  0  0
  -92.5390   64.1200  105.3055 O   0  0  0  0  0  0  0  0  0  0  0  0
  -87.8328   63.2897  104.0116 O   0  0  0  0  0  0  0  0  0  0  0  0
  -85.4197   68.9071  105.1029 C   0  0  0  0  0  0  0  0  0  0  0  0
  -88.5144   64.3494  103.9808 C   0  0  0  0  0  0  0  0  0  0  0  0
  -91.4651   65.4982  103.8003 O   0  0  0  0  0  0  0  0  0  0  0  0
  -88.9992   66.4336  105.2764 C   0  0  0  0  0  3  0  0  0  0  0  0
  -84.4367   69.9036  105.0746 C   0  0  0  0  0  3  0  0  0  0  0  0
  -83.6709   67.2194  104.9643 C   0  0  0  0  0  3  0  0  0  0  0  0
  -92.6457   65.7663  103.0595 C   0  0  0  0  0  1  0  0  0  0  0  0
  -89.0076   64.9362  105.2699 C   0  0  0  0  0  3  0  0  0  0  0  0
  -88.3988   64.4165  101.5227 C   0  0  0  0  0  1  0  0  0  0  0  0
  -88.8356   64.9522  102.7624 O   0  0  0  0  0  0  0  0  0  0  0  0
  -82.6996   68.2230  104.9379 C   0  0  0  0  0  3  0  0  0  0  0  0
  -86.7986   69.3122  105.1843 N   0  0  0  0  0  0  0  0  0  0  0  0
  -90.2878   64.4133  105.6285 O   0  0  0  0  0  0  0  0  0  0  0  0
  -87.8679   68.5698  105.2393 C   0  0  0  0  0  3  0  0  0  0  0  0
  1  7  2  0
  2  5  2  0
  3 20  1  0
  4 11  2  0
  7 11  1  0
  7 18  1  0
  8  6  2  0
  8 14  1  0
  9  2  1  0
  9 13  1  0
 10  3  2  0
 12  1  1  0
 14 10  1  0
 14 19  1  0
 15 16  1  0
 16  8  1  0
 17 12  2  0
 17  4  1  0
 19  2  1  0
 20 18  2  0
M  RAD  8   1   2   3   2   4   2  10   2  11   2  12   2  13   2  14   2
M  RAD  3  15   2  17   2  20   2
M  END
$$$$
/tmp/tmplb_jt_sl
     RDKit          3D

 20 22  0  0  1  0  0  0  0  0999 V2000
  -85.7131   70.2875  105.3113 C   0  0  0  0  0  3  0  0  0  0  0  0
  -86.9933   68.1375  105.4933 C   0  0  0  0  0  0  0  0  0  0  0  0
  -91.6075   63.1033  104.7661 C   0  0  0  0  0  2  0  0  0  0  0  0
  -87.0122   66.7339  105.4445 C   0  0  0  0  0  3  0  0  0  0  0  0
  -88.1987   66.0186  105.6606 C   0  0  0  0  0  0  0  0  0  0  0  0
  -90.2140   63.6193  104.4873 C   0  0  0  0  0  3  0  0  0  0  0  0
  -83.3476   68.9015  104.7739 C   0  0  0  0  0  3  0  0  0  0  0  0
  -91.6427   61.7288  104.4884 O   0  0  0  0  0  0  0  0  0  0  0  0
  -89.4549   63.7584  105.7985 C   0  0  0  0  0  2  0  0  0  0  0  0
  -88.1956   64.5431  105.6042 C   0  0  0  0  0  0  0  0  0  0  0  0
  -85.7329   68.8833  105.2627 C   0  0  0  0  0  0  0  0  0  0  0  0
  -83.3421   70.2974  104.8252 C   0  0  0  0  0  3  0  0  0  0  0  0
  -90.7087   61.5389  103.4610 C   0  0  0  0  0  2  0  0  0  0  0  0
  -88.1895   68.8209  105.7641 C   0  0  0  0  0  3  0  0  0  0  0  0
  -84.5247   70.9905  105.0939 C   0  0  0  0  0  3  0  0  0  0  0  0
  -89.3807   66.7225  105.9298 C   0  0  0  0  0  3  0  0  0  0  0  0
  -89.3764   68.1177  105.9812 C   0  0  0  0  0  3  0  0  0  0  0  0
  -87.1246   63.9221  105.3675 O   0  0  0  0  0  0  0  0  0  0  0  0
  -89.5956   62.5420  103.6431 C   0  0  0  0  0  2  0  0  0  0  0  0
  -84.5360   68.1986  104.9914 C   0  0  0  0  0  3  0  0  0  0  0  0
  1 15  2  0
  2 11  1  0
  2 14  1  0
  4  2  2  0
  5  4  1  0
  5 16  2  0
  6  3  1  0
  6  9  1  0
  7 12  2  0
  8  3  1  0
 10  9  1  0
 10  5  1  0
 11  1  1  0
 12 15  1  0
 13  8  1  0
 16 17  1  0
 17 14  2  0
 18 10  2  0
 19 13  1  0
 19  6  1  0
 20  7  1  0
 20 11  2  0
M  RAD  8   1   2   3   3   4   2   6   2   7   2   9   3  12   2  13   3
M  RAD  6  14   2  15   2  16   2  17   2  19   3  20   2
M  END
$$$$
/tmp/tmpv9j1rxz2
     RDKit          3D

 20 23  0  0  1  0  0  0  0  0999 V2000
  -87.2530   68.3307  104.6688 N   0  0  0  0  0  0  0  0  0  0  0  0
  -87.8449   62.0317  103.3954 S   0  0  0  0  0  0  0  0  0  0  0  0
  -82.5760   70.0169  106.7188 O   0  0  0  0  0  0  0  0  0  0  0  0
  -89.2247   63.2136  103.6645 C   0  0  0  0  0  0  0  0  0  0  0  0
  -85.0378   69.4082  105.1341 C   0  0  0  0  0  2  0  0  0  0  0  0
  -88.8016   63.8164  104.9811 C   0  0  0  0  0  0  0  0  0  0  0  0
  -84.6170   68.8599  106.4852 C   0  0  0  0  0  2  0  0  0  0  0  0
  -90.5737   62.6878  104.0673 C   0  0  0  0  0  2  0  0  0  0  0  0
  -87.6273   70.2067  105.5141 C   0  0  0  0  0  0  0  0  0  0  0  0
  -88.9813   69.7185  105.4410 N   0  0  0  0  0  0  0  0  0  0  0  0
  -88.2124   67.3965  104.3721 N   0  0  0  0  0  0  0  0  0  0  0  0
  -89.6317   61.7349  103.4466 C   0  0  2  0  0  0  0  0  0  0  0  0
  -90.0569   61.5248  102.1361 O   0  0  0  0  0  1  0  0  0  0  0  0
  -83.1343   68.9351  106.6320 C   0  0  0  0  0  3  0  0  0  0  0  0
  -88.6889   63.0407  106.0968 F   0  0  0  0  0  0  0  0  0  0  0  0
  -88.5918   66.0675  103.9337 C   0  0  0  0  0  2  0  0  0  0  0  0
  -88.5221   68.6132  104.9209 C   0  0  0  0  0  0  0  0  0  0  0  0
  -87.3394   71.5324  106.1273 C   0  0  0  0  0  1  0  0  0  0  0  0
  -86.5194   69.3406  105.0008 C   0  0  0  0  0  0  0  0  0  0  0  0
  -88.5129   65.1190  105.0874 C   0  0  0  0  0  3  0  0  0  0  0  0
  1 19  1  0
  1 17  1  0
  2  4  1  0
  4  6  1  0
  5  7  1  0
  5 19  1  0
  6 20  2  0
  6 15  1  0
  7 14  1  0
  8  4  1  0
  9 10  1  0
  9 18  1  0
 11  1  1  0
 11 17  1  0
 12 13  1  1
 12  2  1  0
 12  8  1  0
 12  4  1  0
 14  3  2  0
 16 11  1  0
 16 20  1  0
 17 10  2  0
 19  9  2  0
M  RAD  8   5   3   7   3   8   3  13   2  14   2  16   3  18   2  20   2
M  END
$$$$
/tmp/tmpvzecn7sg
     RDKit          3D

 20 23  0  0  1  0  0  0  0  0999 V2000
  -87.3096   69.2223  104.6171 C   0  0  0  0  0  3  0  0  0  0  0  0
  -91.6701   63.8545  103.5272 C   0  0  0  0  0  2  0  0  0  0  0  0
  -91.2396   66.6430  106.9133 O   0  0  0  0  0  0  0  0  0  0  0  0
  -90.3258   63.4978  102.9497 C   0  0  0  0  0  2  0  0  0  0  0  0
  -87.0287   67.1361  105.7929 C   0  0  0  0  0  0  0  0  0  0  0  0
  -87.6888   66.3389  106.8618 C   0  0  0  0  0  3  0  0  0  0  0  0
  -89.9316   65.1776  104.5341 C   0  0  0  0  0  3  0  0  0  0  0  0
  -88.3448   64.5728  103.0373 O   0  0  0  0  0  1  0  0  0  0  0  0
  -86.1398   68.9492  103.8896 C   0  0  0  0  0  3  0  0  0  0  0  0
  -88.1667   64.9907  106.3154 C   0  0  0  0  0  2  0  0  0  0  0  0
  -88.9452   67.1773  107.2003 C   0  0  0  0  0  3  0  0  0  0  0  0
  -88.8685   68.3929  106.3862 N   0  0  0  0  0  2  0  0  0  0  0  0
  -89.6654   65.0820  106.0420 C   0  0  0  0  0  3  0  0  0  0  0  0
  -90.0722   66.3376  106.7280 C   0  0  0  0  0  0  0  0  0  0  0  0
  -89.3109   64.0544  103.8318 N   0  0  0  0  0  0  0  0  0  0  0  0
  -84.1788   67.4861  103.3506 C   0  0  0  0  0  1  0  0  0  0  0  0
  -91.4245   65.1515  104.2454 C   0  0  0  0  0  2  0  0  0  0  0  0
  -85.8592   66.8436  105.0890 C   0  0  0  0  0  3  0  0  0  0  0  0
  -85.4164   67.7637  104.1245 C   0  0  0  0  0  0  0  0  0  0  0  0
  -87.7243   68.2890  105.5658 C   0  0  0  0  0  0  0  0  0  0  0  0
  4 15  1  0
  4  2  1  0
  5 20  2  0
  6 10  1  0
  6  5  1  0
  6 11  1  0
  7 17  1  0
  7 13  1  0
  8 15  1  0
  9  1  2  0
 11 12  1  0
 11 14  1  0
 13 10  1  0
 13 14  1  0
 14  3  2  0
 15  7  1  0
 16 19  1  0
 17  2  1  0
 18  5  1  0
 18 19  2  0
 19  9  1  0
 20 12  1  0
 20  1  1  0
M  RAD  8   1   2   2   3   4   3   6   2   7   2   8   2   9   2  10   3
M  RAD  6  11   2  12   2  13   2  16   2  17   3  18   2
M  END
$$$$

     RDKit          3D

 11 11  0  0  0  0  0  0  0  0999 V2000
  -85.4055   67.6129  105.9361 C   0  0  0  0  0  3  0  0  0  0  0  0
  -86.2843   66.6391  105.7032 C   0  0  0  0  0  3  0  0  0  0  0  0
  -84.4080   69.7372  105.6847 O   0  0  0  0  0  0  0  0  0  0  0  0
  -87.9763   69.1738  105.3293 C   0  0  0  0  0  0  0  0  0  0  0  0
  -83.7212   70.0315  104.5053 C   0  0  0  0  0  1  0  0  0  0  0  0
  -87.4840   66.7683  104.8532 C   0  0  0  0  0  3  0  0  0  0  0  0
  -86.7665   69.6438  105.6408 C   0  0  0  0  0  3  0  0  0  0  0  0
  -88.2035   67.8792  104.6393 C   0  0  0  0  0  0  0  0  0  0  0  0
  -85.4909   68.9534  105.2833 C   0  0  0  0  0  3  0  0  0  0  0  0
  -89.0783   69.9565  105.6520 O   0  0  0  0  0  1  0  0  0  0  0  0
  -89.4075   67.7474  103.7738 C   0  0  0  0  0  1  0  0  0  0  0  0
  1  9  1  0
  2  1  2  0
  4 10  1  0
  4  7  2  0
  5  3  1  0
  6  8  2  0
  6  2  1  0
  7  9  1  0
  8  4  1  0
  9  3  1  0
 11  8  1  0
M  RAD  8   1   2   2   2   5   2   6   2   7   2   9   2  10   2  11   2
M  END
$$$$

     RDKit          3D

 12 13  0  0  0  0  0  0  0  0999 V2000
  -89.0276   70.8050  106.3840 C   0  0  0  0  0  0  0  0  0  0  0  0
  -85.8225   68.8162  105.8175 C   0  0  0  0  0  3  0  0  0  0  0  0
  -88.1695   68.3509  105.4496 C   0  0  0  0  0  0  0  0  0  0  0  0
  -89.9390   69.8510  105.9127 C   0  0  0  0  0  3  0  0  0  0  0  0
  -86.7320   71.4361  106.8467 O   0  0  0  0  0  1  0  0  0  0  0  0
  -89.4983   72.0603  106.8631 N   0  0  0  0  0  1  0  0  0  0  0  0
  -84.7940   69.8757  104.2712 I   0  0  0  0  0  0  0  0  0  0  0  0
  -87.6374   67.0558  104.9761 C   0  0  0  0  0  2  0  0  0  0  0  0
  -89.4960   68.6462  105.4571 N   0  0  0  0  0  0  0  0  0  0  0  0
  -85.8562   67.0375  105.3899 S   0  0  0  0  0  0  0  0  0  0  0  0
  -87.2358   69.2646  105.8934 C   0  0  0  0  0  0  0  0  0  0  0  0
  -87.6568   70.5088  106.3778 C   0  0  0  0  0  0  0  0  0  0  0  0
  1  6  1  0
  2  7  1  0
  2 11  1  0
  3  9  2  0
  3 11  1  0
  4  1  2  0
  8 10  1  0
  8  3  1  0
  9  4  1  0
 10  2  1  0
 11 12  2  0
 12  5  1  0
 12  1  1  0
M  RAD  5   2   2   4   2   5   2   6   3   8   3
M  END
$$$$
/tmp/tmphlko32ie
     RDKit          3D

 20 24  0  0  1  0  0  0  0  0999 V2000
  -88.0105   61.4968  103.4550 C   0  0  0  0  0  0  0  0  0  0  0  0
  -88.6130   70.4446  105.6079 C   0  0  0  0  0  2  0  0  0  0  0  0
  -87.8365   69.7057  104.5331 C   0  0  0  0  0  3  0  0  0  0  0  0
  -91.6107   68.1306  106.1535 C   0  0  0  0  0  2  0  0  0  0  0  0
  -86.7114   68.9235  105.1771 C   0  0  0  0  0  2  0  0  0  0  0  0
  -90.1095   66.2256  105.6180 C   0  0  0  0  0  3  0  0  0  0  0  0
  -87.6539   60.6944  102.3364 N   0  0  0  0  0  1  0  0  0  0  0  0
  -90.0626   69.9890  105.6287 C   0  0  0  0  0  2  0  0  0  0  0  0
  -85.8334   69.9740  103.1239 C   0  0  0  0  0  1  0  0  0  0  0  0
  -90.1805   68.6150  106.2621 C   0  0  0  0  0  3  0  0  0  0  0  0
  -88.1729   64.8049  105.7836 N   0  0  0  0  0  2  0  0  0  0  0  0
  -88.9447   62.5636  103.2905 N   0  0  0  0  0  2  0  0  0  0  0  0
  -90.5619   67.6115  105.1908 C   0  0  0  0  0  3  0  0  0  0  0  0
  -86.4202   70.2416  104.4936 C   0  0  0  0  0  3  0  0  0  0  0  0
  -90.0263   64.6056  103.8806 C   0  0  0  0  0  3  0  0  0  0  0  0
  -88.5464   64.7300  104.3428 C   0  0  2  0  0  0  0  0  0  0  0  0
  -87.4986   61.2603  104.5815 O   0  0  0  0  0  0  0  0  0  0  0  0
  -89.3448   63.4152  104.3984 C   0  0  0  0  0  3  0  0  0  0  0  0
  -88.6845   65.9884  105.1485 C   0  0  0  0  0  3  0  0  0  0  0  0
  -90.9397   65.1855  104.9300 C   0  0  0  0  0  2  0  0  0  0  0  0
  1 12  1  0
  1 17  2  0
  3  2  1  0
  3  5  1  0
  4 10  1  0
  6 13  1  0
  6 20  1  0
  7  1  1  0
  8  2  1  0
 10  8  1  0
 13  4  1  0
 13 10  1  0
 14  9  1  0
 14  3  1  0
 14  5  1  0
 15 20  1  0
 16 11  1  1
 16 15  1  0
 16 19  1  0
 18 12  1  0
 18 16  1  0
 18 15  1  0
 19 11  1  0
 19  6  1  0
M  RAD  8   2   3   3   2   4   3   5   3   6   2   7   3   8   3   9   2
M  RAD  8  10   2  11   2  12   2  13   2  14   2  15   2  18   2  19   2
M  RAD  1  20   3
M  END
$$$$
/tmp/tmpqyvihkzp
     RDKit          3D

 20 22  0  0  1  0  0  0  0  0999 V2000
  -88.8682   65.8185  105.4873 N   0  0  0  0  0  0  0  0  0  0  0  0
  -90.2103   63.9305  104.7958 C   0  0  0  0  0  3  0  0  0  0  0  0
  -87.6811   66.6152  105.5280 C   0  0  0  0  0  0  0  0  0  0  0  0
  -86.4776   68.5462  106.3515 C   0  0  0  0  0  3  0  0  0  0  0  0
  -84.3417   69.6245  103.3121 C   0  0  0  0  0  1  0  0  0  0  0  0
  -85.1145   69.6487  104.5859 C   0  0  0  0  0  0  0  0  0  0  0  0
  -86.4359   66.2099  104.7683 C   0  0  0  0  0  2  0  0  0  0  0  0
  -85.7518   67.3678  104.2839 O   0  0  0  0  0  0  0  0  0  0  0  0
  -88.9488   64.7215  104.8053 C   0  0  0  0  0  3  0  0  0  0  0  0
  -89.9968   62.6260  104.0644 C   0  0  0  0  0  2  0  0  0  0  0  0
  -85.7398   68.5503  105.0318 C   0  0  0  0  0  0  0  0  0  0  0  0
  -85.2443   70.9241  105.3093 C   0  0  0  0  0  3  0  0  0  0  0  0
  -91.9894   63.6345  103.1563 C   0  0  0  0  0  3  0  0  0  0  0  0
  -87.6745   67.7085  106.2351 N   0  0  0  0  0  0  0  0  0  0  0  0
  -86.0638   71.0313  106.3551 C   0  0  0  0  0  3  0  0  0  0  0  0
  -91.3001   64.6637  104.0348 C   0  0  0  0  0  2  0  0  0  0  0  0
  -86.8200   69.9000  106.8048 N   0  0  0  0  0  0  0  0  0  0  0  0
  -87.6826   70.0744  107.9607 C   0  0  0  0  0  1  0  0  0  0  0  0
  -93.8719   63.5495  103.5894 Br  0  0  0  0  0  0  0  0  0  0  0  0
  -91.3360   62.2989  103.4471 C   0  0  0  0  0  2  0  0  0  0  0  0
  1  3  1  0
  2  9  1  0
  2 16  1  0
  3 14  2  0
  4 11  1  0
  4 17  1  0
  5  6  1  0
  6 12  1  0
  7  8  1  0
  7  3  1  0
  8 11  1  0
  9  1  2  0
 10 20  1  0
 10  2  1  0
 11  6  2  0
 12 15  2  0
 13 19  1  0
 13 16  1  0
 14  4  1  0
 17 15  1  0
 17 18  1  0
 20 13  1  0
M  RAD  8   2   2   4   2   5   2   7   3   9   2  10   3  12   2  13   2
M  RAD  4  15   2  16   3  18   2  20   3
M  END
$$$$
/tmp/tmpxydijwax
     RDKit          3D

 20 23  0  0  1  0  0  0  0  0999 V2000
  -87.2249   67.3031  105.7460 O   0  0  0  0  0  0  0  0  0  0  0  0
  -84.8469   69.5140  104.4613 C   0  0  0  0  0  3  0  0  0  0  0  0
  -88.5545   64.2008  103.5829 C   0  0  0  0  0  0  0  0  0  0  0  0
  -84.9392   70.8337  106.6607 C   0  0  0  0  0  3  0  0  0  0  0  0
  -90.1042   62.5306  106.2993 C   0  0  0  0  0  3  0  0  0  0  0  0
  -91.4137   63.5042  104.7495 C   0  0  0  0  0  3  0  0  0  0  0  0
  -84.2796   70.4265  105.4185 C   0  0  0  0  0  3  0  0  0  0  0  0
  -92.1421   63.4006  105.8108 N   0  0  0  0  0  0  0  0  0  0  0  0
  -87.6770   66.2459  105.0076 C   0  0  0  0  0  0  0  0  0  0  0  0
  -88.6984   64.2157  102.2715 C   0  0  0  0  0  3  0  0  0  0  0  0
  -89.2886   62.1718  102.8506 C   0  0  0  0  0  3  0  0  0  0  0  0
  -91.3956   62.7991  106.8299 N   0  0  0  0  0  2  0  0  0  0  0  0
  -89.1600   62.9487  101.8245 N   0  0  0  0  0  0  0  0  0  0  0  0
  -90.0947   62.9455  105.0444 C   0  0  0  0  0  0  0  0  0  0  0  0
  -86.7290   69.5183  106.1384 C   0  0  0  0  0  0  0  0  0  0  0  0
  -87.3417   68.6239  105.2463 C   0  0  0  0  0  3  0  0  0  0  0  0
  -86.0715   69.1127  104.9005 C   0  0  0  0  0  0  0  0  0  0  0  0
  -86.2367   70.3717  107.0782 C   0  0  0  0  0  3  0  0  0  0  0  0
  -88.9157   62.8608  104.1245 C   0  0  0  0  0  3  0  0  0  0  0  0
  -88.0760   65.3133  104.3564 C   0  0  0  0  0  0  0  0  0  0  0  0
  2  7  2  0
  2 17  1  0
  3 20  1  0
  4 18  2  0
  5 12  1  0
  6 14  1  0
  6  8  2  0
  7  4  1  0
  8 12  1  0
  9  1  1  0
 10  3  2  0
 11 19  1  0
 13 11  2  0
 13 10  1  0
 14  5  2  0
 15 18  1  0
 16  1  1  0
 16 15  1  0
 17 16  1  0
 17 15  2  0
 19  3  1  0
 19 14  1  0
 20  9  3  0
M  RAD  8   2   2   4   2   5   2   6   2   7   2  10   2  11   2  12   2
M  RAD  3  16   2  18   2  19   2
M  END
$$$$

     RDKit          3D

 12 12  0  0  0  0  0  0  0  0999 V2000
  -87.8575   64.4552  103.6357 C   0  0  0  0  0  3  0  0  0  0  0  0
  -90.1841   64.1946  104.2464 C   0  0  0  0  0  3  0  0  0  0  0  0
  -87.9352   65.8201  103.9240 C   0  0  0  0  0  3  0  0  0  0  0  0
  -89.1956   67.7364  104.6563 O   0  0  0  0  0  1  0  0  0  0  0  0
  -90.2716   65.5673  104.5389 C   0  0  0  0  0  0  0  0  0  0  0  0
  -92.5850   65.4766  105.1798 C   0  0  0  0  0  3  0  0  0  0  0  0
  -88.9819   63.6425  103.7969 C   0  0  0  0  0  0  0  0  0  0  0  0
  -93.8203   66.1514  105.6637 C   0  0  0  0  0  2  0  0  0  0  0  0
  -91.4956   66.1543  105.0016 N   0  0  0  0  0  0  0  0  0  0  0  0
  -93.6298   66.6118  107.0279 N   0  0  0  0  0  1  0  0  0  0  0  0
  -89.1365   66.3770  104.3742 C   0  0  0  0  0  0  0  0  0  0  0  0
  -88.9051   62.2866  103.5106 O   0  0  0  0  0  1  0  0  0  0  0  0
  1  7  2  0
  1  3  1  0
  2  5  2  0
  3 11  2  0
  5  9  1  0
  6  8  1  0
  7  2  1  0
  8 10  1  0
  9  6  2  0
 11  4  1  0
 11  5  1  0
 12  7  1  0
M  RAD  8   1   2   2   2   3   2   4   2   6   2   8   3  10   3  12   2
M  END
$$$$
/tmp/tmplefc1ew4
     RDKit          3D

 20 22  0  0  0  0  0  0  0  0999 V2000
  -83.7192   70.0708  104.7827 C   0  0  0  0  0  3  0  0  0  0  0  0
  -85.0135   69.8662  105.2220 C   0  0  0  0  0  0  0  0  0  0  0  0
  -88.9886   66.0937  105.2558 C   0  0  0  0  0  3  0  0  0  0  0  0
  -90.6424   62.9739  104.5703 C   0  0  0  0  0  0  0  0  0  0  0  0
  -87.6788   64.0087  103.4124 N   0  0  0  0  0  2  0  0  0  0  0  0
  -89.4536   64.7520  104.8876 C   0  0  0  0  0  0  0  0  0  0  0  0
  -89.5445   62.6377  103.9680 N   0  0  0  0  0  0  0  0  0  0  0  0
  -88.1295   68.7565  106.0068 C   0  0  0  0  0  0  0  0  0  0  0  0
  -85.7331   68.6895  104.9957 C   0  0  0  0  0  0  0  0  0  0  0  0
  -92.8935   62.4595  105.2062 N   0  0  0  0  0  2  0  0  0  0  0  0
  -86.1646   70.3994  105.9295 C   0  0  0  0  0  2  0  0  0  0  0  0
  -85.2174   67.6071  104.3054 C   0  0  0  0  0  3  0  0  0  0  0  0
  -89.7659   66.9513  105.9147 C   0  0  0  0  0  3  0  0  0  0  0  0
  -91.8076   62.0905  104.6127 C   0  0  0  0  0  3  0  0  0  0  0  0
  -83.1583   68.9819  104.0709 C   0  0  0  0  0  3  0  0  0  0  0  0
  -88.6921   63.7524  104.1714 C   0  0  0  0  0  0  0  0  0  0  0  0
  -89.3209   68.3012  106.2933 C   0  0  0  0  0  3  0  0  0  0  0  0
  -86.9389   69.1975  105.7144 C   0  0  0  0  0  0  0  0  0  0  0  0
  -90.6289   64.2852  105.1498 N   0  0  0  0  0  0  0  0  0  0  0  0
  -83.8909   67.7770  103.8374 C   0  0  0  0  0  3  0  0  0  0  0  0
  1  2  2  0
  2 11  1  0
  3 13  2  0
  4 14  1  0
  4 19  1  0
  5 16  2  0
  6  3  1  0
  6 19  2  0
  7  4  2  0
  8 17  2  0
  9  2  1  0
  9 18  1  0
 12  9  2  0
 13 17  1  0
 14 10  2  0
 15  1  1  0
 16  7  1  0
 16  6  1  0
 18 11  1  0
 18  8  2  0
 20 15  2  0
 20 12  1  0
M  RAD  8   1   2   3   2   5   2  10   2  11   3  12   2  13   2  14   2
M  RAD  3  15   2  17   2  20   2
M  END
$$$$
/tmp/tmp96ob5n6_
     RDKit          3D

 20 20  0  0  0  0  0  0  0  0999 V2000
  -88.8380   62.5129  103.9696 O   0  0  0  0  0  0  0  0  0  0  0  0
  -93.3504   63.2354  104.9449 O   0  0  0  0  0  0  0  0  0  0  0  0
  -92.2385   62.8551  105.3938 C   0  0  0  0  0  0  0  0  0  0  0  0
  -82.8884   69.8220  104.3710 C   0  0  0  0  0  2  0  0  0  0  0  0
  -88.3609   63.7465  103.5243 C   0  0  0  0  0  0  0  0  0  0  0  0
  -92.1314   62.4559  106.7209 O   0  0  0  0  0  1  0  0  0  0  0  0
  -88.0301   65.8044  103.3055 C   0  0  0  0  0  0  0  0  0  0  0  0
  -91.0988   62.8381  104.5372 N   0  0  0  0  0  2  0  0  0  0  0  0
  -87.2283   67.6862  104.7087 C   0  0  0  0  0  2  0  0  0  0  0  0
  -88.0650   67.2821  103.5056 C   0  0  0  0  0  2  0  0  0  0  0  0
  -84.9169   69.5147  105.7587 C   0  0  0  0  0  0  0  0  0  0  0  0
  -87.4892   63.8655  102.5509 O   0  0  0  0  0  0  0  0  0  0  0  0
  -84.9094   68.0284  105.5751 C   0  0  0  0  0  2  0  0  0  0  0  0
  -88.7383   64.9311  104.0446 N   0  0  0  0  0  0  0  0  0  0  0  0
  -89.7951   62.4063  105.0146 C   0  0  0  0  0  2  0  0  0  0  0  0
  -85.7470   67.6247  104.3727 C   0  0  0  0  0  2  0  0  0  0  0  0
  -83.3814   69.4777  103.1121 O   0  0  0  0  0  1  0  0  0  0  0  0
  -87.2483   65.1438  102.3800 C   0  0  0  0  0  3  0  0  0  0  0  0
  -85.8314   70.0429  106.4432 O   0  0  0  0  0  0  0  0  0  0  0  0
  -83.9412   70.3313  105.1796 O   0  0  0  0  0  0  0  0  0  0  0  0
  1  5  1  0
  1 15  1  0
  3  2  2  0
  3  6  1  0
  4 20  1  0
  5 14  2  0
  7 10  1  0
  8  3  1  0
 10  9  1  0
 11 19  2  0
 12  5  1  0
 12 18  1  0
 13 11  1  0
 14  7  1  0
 15  8  1  0
 16  9  1  0
 16 13  1  0
 17  4  1  0
 18  7  2  0
 20 11  1  0
M  RAD  8   4   3   6   2   8   2   9   3  10   3  13   3  15   3  16   3
M  RAD  2  17   2  18   2
M  END
$$$$
/tmp/tmpiua_gfsx
     RDKit          3D

 20 19  0  0  1  0  0  0  0  0999 V2000
  -87.7678   66.8747  107.0721 O   0  0  0  0  0  1  0  0  0  0  0  0
  -83.7056   71.4577  104.2080 O   0  0  0  0  0  0  0  0  0  0  0  0
  -81.9919   71.7411  106.2474 C   0  0  0  0  0  1  0  0  0  0  0  0
  -87.6139   67.1737  105.7144 C   0  0  0  0  0  3  0  0  0  0  0  0
  -85.0558   68.9375  105.4645 C   0  0  0  0  0  3  0  0  0  0  0  0
  -89.5125   64.5336  103.7104 C   0  0  0  0  0  2  0  0  0  0  0  0
  -84.6546   71.9761  106.4113 O   0  0  0  0  0  0  0  0  0  0  0  0
  -90.3180   59.7035  104.4747 O   0  0  0  0  0  0  0  0  0  0  0  0
  -90.3813   60.9393  104.4620 C   0  0  0  0  0  0  0  0  0  0  0  0
  -91.5560   62.9070  105.1928 C   0  0  0  0  0  1  0  0  0  0  0  0
  -88.5129   62.4747  103.0844 O   0  0  0  0  0  0  0  0  0  0  0  0
  -90.4478   62.2438  104.4484 C   0  0  0  0  0  0  0  0  0  0  0  0
  -87.5013   68.6799  105.5134 C   0  0  0  0  0  2  0  0  0  0  0  0
  -88.6781   65.0856  104.8534 C   0  0  0  0  0  2  0  0  0  0  0  0
  -89.4495   63.0427  103.7092 C   0  0  0  0  0  0  0  0  0  0  0  0
  -90.1229   67.0417  105.4360 C   0  0  0  0  0  1  0  0  0  0  0  0
  -83.5894   71.2045  105.6847 S   0  0  1  0  0  0  0  0  0  0  0  0
  -86.2148   69.2032  106.0664 C   0  0  0  0  0  3  0  0  0  0  0  0
  -88.7681   66.6024  104.8924 C   0  0  0  0  0  3  0  0  0  0  0  0
  -83.7689   69.4605  106.0152 C   0  0  0  0  0  2  0  0  0  0  0  0
  2 17  2  0
  4  1  1  0
  5 18  2  0
  6 14  1  0
  9 12  2  0
  9  8  2  0
 10 12  1  0
 11 15  2  0
 12 15  1  0
 13  4  1  0
 14 19  1  0
 15  6  1  0
 17 20  1  0
 17  3  1  1
 17  7  2  0
 18 13  1  0
 19 16  1  0
 19  4  1  0
 20  5  1  0
M  RAD  8   1   2   3   2   4   2   5   2   6   3  10   2  13   3  14   3
M  RAD  4  16   2  18   2  19   2  20   3
M  END
$$$$
/tmp/tmpnqi61lgo
     RDKit          3D

 20 20  0  0  1  0  0  0  0  0999 V2000
  -87.1027   70.3277  106.6357 C   0  0  0  0  0  3  0  0  0  0  0  0
  -89.0019   65.1313  104.2231 C   0  0  0  0  0  3  0  0  0  0  0  0
  -90.9551   67.6645  106.2434 O   0  0  0  0  0  1  0  0  0  0  0  0
  -88.1110   64.2000  104.9337 C   0  0  0  0  0  0  0  0  0  0  0  0
  -88.3971   67.1419  105.4807 C   0  0  0  0  0  0  0  0  0  0  0  0
  -83.0957   69.8199  107.1505 Cl  0  0  0  0  0  0  0  0  0  0  0  0
  -84.7463   69.3970  106.7512 C   0  0  0  0  0  0  0  0  0  0  0  0
  -88.3928   65.5662  102.8930 C   0  0  0  0  0  2  0  0  0  0  0  0
  -88.0194   63.4563  101.9018 O   0  0  0  0  0  0  0  0  0  0  0  0
  -87.3813   63.4370  105.5163 C   0  0  0  0  0  3  0  0  0  0  0  0
  -89.4858   64.8278  100.6746 C   0  0  0  0  0  2  0  0  0  0  0  0
  -87.8594   69.3209  106.2131 C   0  0  0  0  0  3  0  0  0  0  0  0
  -89.3375   66.3175  105.0783 C   0  0  0  0  0  0  0  0  0  0  0  0
  -90.7769   66.5292  105.4473 C   0  0  0  0  0  2  0  0  0  0  0  0
  -90.5761   63.9578  100.6755 O   0  0  0  0  0  1  0  0  0  0  0  0
  -87.4579   67.9535  105.8768 C   0  0  0  0  0  0  0  0  0  0  0  0
  -85.6576   70.3584  106.8850 C   0  0  0  0  0  3  0  0  0  0  0  0
  -86.0984   67.4119  105.9391 C   0  0  0  0  0  3  0  0  0  0  0  0
  -84.9718   68.0165  106.3039 C   0  0  0  0  0  3  0  0  0  0  0  0
  -88.5995   64.5287  101.8360 C   0  0  0  0  0  0  0  0  0  0  0  0
  1 12  2  0
  2  8  1  0
  2  4  1  0
  2 13  1  0
  5 16  2  0
  6  7  1  0
  7 19  1  0
  7 17  2  0
  9 20  2  0
 10  4  3  0
 11 15  1  0
 11 20  1  0
 13  5  2  0
 13 14  1  0
 14  3  1  0
 16 12  1  0
 17  1  1  0
 18 16  1  0
 19 18  2  0
 20  8  1  0
M  RAD  8   1   2   2   2   3   2   8   3  10   2  11   3  12   2  14   3
M  RAD  4  15   2  17   2  18   2  19   2
M  END
$$$$

     RDKit          3D

 15 16  0  0  0  0  0  0  0  0999 V2000
  -90.5106   64.6900  104.1163 O   0  0  0  0  0  0  0  0  0  0  0  0
  -87.5199   67.6626  106.4975 C   0  0  0  0  0  0  0  0  0  0  0  0
  -88.6346   66.8157  106.4162 N   0  0  0  0  0  2  0  0  0  0  0  0
  -84.4897   71.3497  106.3274 C   0  0  0  0  0  3  0  0  0  0  0  0
  -85.5323   70.5518  106.2333 C   0  0  0  0  0  0  0  0  0  0  0  0
  -90.9287   65.0907  106.3330 O   0  0  0  0  0  1  0  0  0  0  0  0
  -88.9977   66.1498  105.2039 C   0  0  0  0  0  0  0  0  0  0  0  0
  -90.1752   65.2764  105.1800 C   0  0  0  0  0  0  0  0  0  0  0  0
  -86.5625   68.3919  106.5686 C   0  0  0  0  0  0  0  0  0  0  0  0
  -86.7381   71.1942  105.6326 C   0  0  0  0  0  3  0  0  0  0  0  0
  -85.4763   69.2214  106.6508 O   0  0  0  0  0  0  0  0  0  0  0  0
  -86.2823   72.6184  105.3445 C   0  0  0  0  0  3  0  0  0  0  0  0
  -88.3111   66.3095  104.1580 O   0  0  0  0  0  0  0  0  0  0  0  0
  -84.8376   72.7106  105.8440 C   0  0  0  0  0  2  0  0  0  0  0  0
  -87.2364   72.3422  106.4930 C   0  0  0  0  0  2  0  0  0  0  0  0
  1  8  2  0
  2  3  1  0
  4 14  1  0
  5  4  2  0
  5 10  1  0
  7  8  1  0
  7  3  1  0
  8  6  1  0
  9  2  3  0
 10 12  1  0
 10 15  1  0
 11  9  1  0
 11  5  1  0
 12 14  1  0
 12 15  1  0
 13  7  2  0
M  RAD  7   3   2   4   2   6   2  10   2  12   2  14   3  15   3
M  END
$$$$

     RDKit          3D

 18 19  0  0  0  0  0  0  0  0999 V2000
  -87.1010   69.1265  107.1832 N   0  0  0  0  0  2  0  0  0  0  0  0
  -87.3503   64.4573  103.9824 C   0  0  0  0  0  0  0  0  0  0  0  0
  -86.3638   66.7068  101.3714 C   0  0  0  0  0  2  0  0  0  0  0  0
  -89.5499   67.7939  100.1595 O   0  0  0  0  0  0  0  0  0  0  0  0
  -88.5603   67.8123  102.5998 S   0  0  0  0  0  0  0  0  0  0  0  0
  -89.0436   68.1492  108.2091 C   0  0  0  0  0  3  0  0  0  0  0  0
  -86.7153   64.3220  105.2587 N   0  0  0  0  0  2  0  0  0  0  0  0
  -88.0354   69.0208  108.2643 C   0  0  0  0  0  3  0  0  0  0  0  0
  -87.9979   63.3304  103.4048 N   0  0  0  0  0  1  0  0  0  0  0  0
  -87.2734   65.5680  103.2971 C   0  0  0  0  0  0  0  0  0  0  0  0
  -87.2908   67.0814  100.2225 C   0  0  0  0  0  2  0  0  0  0  0  0
  -87.9788   67.0422  106.2040 C   0  0  0  0  0  3  0  0  0  0  0  0
  -88.5502   67.6000  100.8307 C   0  0  0  0  0  0  0  0  0  0  0  0
  -87.1935   66.6721  102.6078 C   0  0  0  0  0  0  0  0  0  0  0  0
  -86.0757   65.4175  105.9780 C   0  0  0  0  0  2  0  0  0  0  0  0
  -87.0654   66.0653  106.9349 C   0  0  0  0  0  2  0  0  0  0  0  0
  -89.2678   67.2863  106.9960 C   0  0  0  0  0  2  0  0  0  0  0  0
  -87.2719   68.3761  105.9399 C   0  0  0  0  0  2  0  0  0  0  0  0
  1  8  1  0
  2  7  1  0
  2  9  1  0
  3 14  1  0
  4 13  2  0
  7 15  1  0
  8  6  2  0
 10  2  2  0
 11 13  1  0
 11  3  1  0
 12 16  1  0
 12 17  1  0
 13  5  1  0
 14 10  2  0
 14  5  1  0
 15 16  1  0
 17  6  1  0
 18 12  1  0
 18  1  1  0
M  RAD  8   1   2   3   3   6   2   7   2   8   2   9   3  11   3  12   2
M  RAD  4  15   3  16   3  17   3  18   3
M  END
$$$$
/tmp/tmpemua6t1v
     RDKit          3D

 20 21  0  0  1  0  0  0  0  0999 V2000
  -84.7191   71.2561  107.2452 C   0  0  0  0  0  3  0  0  0  0  0  0
  -87.2814   68.3330  105.3478 C   0  0  0  0  0  3  0  0  0  0  0  0
  -83.4485   71.4647  106.7015 C   0  0  0  0  0  3  0  0  0  0  0  0
  -85.5822   70.3214  106.6657 C   0  0  0  0  0  3  0  0  0  0  0  0
  -90.5597   62.1897  106.9797 C   0  0  0  0  0  1  0  0  0  0  0  0
  -88.9650   63.5621  102.3129 C   0  0  0  0  0  3  0  0  0  0  0  0
  -88.1580   64.4980  102.9658 C   0  0  0  0  0  3  0  0  0  0  0  0
  -89.6027   64.3892  104.9060 C   0  0  0  0  0  3  0  0  0  0  0  0
  -83.0411   70.7390  105.5786 C   0  0  0  0  0  3  0  0  0  0  0  0
  -88.1360   67.3181  104.6704 C   0  0  0  0  0  2  0  0  0  0  0  0
  -92.5177   63.8948  105.6015 C   0  0  0  0  0  1  0  0  0  0  0  0
  -90.0911   63.0396  102.9560 C   0  0  0  0  0  3  0  0  0  0  0  0
  -91.2902   61.7350  105.8010 N   0  0  0  0  0  2  0  0  0  0  0  0
  -85.1776   69.5897  105.5372 C   0  0  0  0  0  0  0  0  0  0  0  0
  -86.0570   68.5990  104.9016 C   0  0  0  0  0  3  0  0  0  0  0  0
  -87.6221   65.9164  104.9557 C   0  0  0  0  0  2  0  0  0  0  0  0
  -90.4195   63.4541  104.2515 C   0  0  0  0  0  0  0  0  0  0  0  0
  -83.9041   69.8040  104.9987 C   0  0  0  0  0  3  0  0  0  0  0  0
  -91.6251   62.8605  104.9228 C   0  0  0  0  0  3  0  0  0  0  0  0
  -88.4729   64.9087  104.2654 C   0  0  0  0  0  0  0  0  0  0  0  0
  1  4  2  0
  3  1  1  0
  5 13  1  0
  6 12  2  0
  6  7  1  0
  7 20  2  0
  8 20  1  0
  9  3  2  0
  9 18  1  0
 10  2  1  0
 12 17  1  0
 13 19  1  0
 14 15  1  0
 14  4  1  0
 15  2  2  0
 16 10  1  0
 17 19  1  0
 17  8  2  0
 18 14  2  0
 19 11  1  0
 20 16  1  0
M  RAD  8   1   2   2   2   3   2   4   2   5   2   6   2   7   2   8   2
M  RAD  8   9   2  10   3  11   2  12   2  13   2  15   2  16   3  18   2
M  RAD  1  19   2
M  END
$$$$

     RDKit          3D

 14 13  0  0  0  0  0  0  0  0999 V2000
  -85.6273   69.3731  107.8025 O   0  0  0  0  0  1  0  0  0  0  0  0
  -86.6417   68.9473  105.7048 C   0  0  0  0  0  3  0  0  0  0  0  0
  -83.3432   68.1118  106.1889 C   0  0  0  0  0  1  0  0  0  0  0  0
  -85.5484   69.1905  106.4244 C   0  0  0  0  0  0  0  0  0  0  0  0
  -92.3006   66.6339  105.7524 O   0  0  0  0  0  1  0  0  0  0  0  0
  -83.6035   70.4721  106.0293 O   0  0  0  0  0  1  0  0  0  0  0  0
  -90.2133   67.7211  106.0700 C   0  0  0  0  0  2  0  0  0  0  0  0
  -91.1538   67.0604  105.0849 C   0  0  0  0  0  2  0  0  0  0  0  0
  -88.0087   68.8665  106.3112 C   0  0  0  0  0  3  0  0  0  0  0  0
  -88.5200   70.2443  106.7479 C   0  0  0  0  0  2  0  0  0  0  0  0
  -84.2267   69.2587  105.7387 C   0  0  0  0  0  3  0  0  0  0  0  0
  -88.9663   68.1868  105.3429 C   0  0  0  0  0  2  0  0  0  0  0  0
  -89.1685   72.5440  106.0904 C   0  0  0  0  0  1  0  0  0  0  0  0
  -88.6650   71.2106  105.5808 C   0  0  0  0  0  2  0  0  0  0  0  0
  2  9  1  0
  2  4  2  0
  4  1  1  0
  8  7  1  0
  8  5  1  0
  9 12  1  0
  9 10  1  0
 11  3  1  0
 11  6  1  0
 11  4  1  0
 12  7  1  0
 14 10  1  0
 14 13  1  0
M  RAD  8   1   2   2   2   3   2   5   2   6   2   7   3   8   3   9   2
M  RAD  5  10   3  11   2  12   3  13   2  14   3
M  END
$$$$

     RDKit          3D

 10 11  0  0  0  0  0  0  0  0999 V2000
  -86.8494   67.6399  104.9304 C   0  0  0  0  0  3  0  0  0  0  0  0
  -84.7834   71.1896  106.6415 O   0  0  0  0  0  0  0  0  0  0  0  0
  -83.7186   70.5948  106.0774 C   0  0  0  0  0  3  0  0  0  0  0  0
  -82.4485   68.6094  104.6433 Cl  0  0  0  0  0  0  0  0  0  0  0  0
  -85.1135   68.8360  105.3025 C   0  0  0  0  0  0  0  0  0  0  0  0
  -87.3295   68.7276  105.6736 C   0  0  0  0  0  3  0  0  0  0  0  0
  -86.2142   69.4912  105.9098 C   0  0  0  0  0  0  0  0  0  0  0  0
  -86.0226   70.6866  106.5851 C   0  0  0  0  0  3  0  0  0  0  0  0
  -83.8408   69.3807  105.3772 C   0  0  0  0  0  0  0  0  0  0  0  0
  -85.5096   67.7042  104.7053 N   0  0  0  0  0  0  0  0  0  0  0  0
  1  6  2  0
  3  2  1  0
  4  9  1  0
  5  9  1  0
  5  7  1  0
  6  7  1  0
  7  8  2  0
  8  2  1  0
  9  3  2  0
 10  1  1  0
 10  5  2  0
M  RAD  4   1   2   3   2   6   2   8   2
M  END
$$$$

     RDKit          3D

 14 15  0  0  0  0  0  0  0  0999 V2000
  -87.4841   63.5980  102.2810 S   0  0  0  0  0  1  0  0  0  0  0  0
  -88.8728   67.8480  105.4098 C   0  0  0  0  0  2  0  0  0  0  0  0
  -91.2037   64.8272  104.5845 C   0  0  1  0  0  0  0  0  0  0  0  0
  -89.3467   69.0816  106.1480 C   0  0  0  0  0  1  0  0  0  0  0  0
  -88.7833   65.0847  104.1495 C   0  0  0  0  0  0  0  0  0  0  0  0
  -90.1301   63.5541  102.7066 C   0  0  0  0  0  2  0  0  0  0  0  0
  -91.9409   65.0785  103.3419 N   0  0  0  0  0  2  0  0  0  0  0  0
  -89.9179   65.6104  104.6628 C   0  0  0  0  0  0  0  0  0  0  0  0
  -88.8124   63.7377  103.4621 C   0  0  1  0  0  0  0  0  0  0  0  0
  -88.6736   62.7274  104.4157 O   0  0  0  0  0  1  0  0  0  0  0  0
  -87.5644   65.7430  104.2897 O   0  0  0  0  0  1  0  0  0  0  0  0
  -92.1237   64.7750  105.7883 C   0  0  0  0  0  1  0  0  0  0  0  0
  -89.9702   66.9001  105.2963 N   0  0  0  0  0  2  0  0  0  0  0  0
  -91.3573   63.7454  103.6017 C   0  0  0  0  0  3  0  0  0  0  0  0
  2  4  1  0
  3  8  1  0
  3 12  1  1
  5 11  1  0
  5  8  2  0
  7  3  1  0
  8 13  1  0
  9  1  1  0
  9  6  1  0
  9  5  1  0
  9 10  1  1
 13  2  1  0
 14  6  1  0
 14  7  1  0
 14  3  1  0
M  RAD  8   1   2   2   3   4   2   6   3   7   2  10   2  11   2  12   2
M  RAD  2  13   2  14   2
M  END
$$$$
/tmp/tmp_css9gm7
     RDKit          3D

 20 22  0  0  1  0  0  0  0  0999 V2000
  -90.9363   65.2825  104.8762 C   0  0  0  0  0  0  0  0  0  0  0  0
  -86.8243   69.4625  104.9320 N   0  0  0  0  0  2  0  0  0  0  0  0
  -88.6349   63.9830  105.6375 C   0  0  0  0  0  0  0  0  0  0  0  0
  -84.8521   70.6344  105.5638 O   0  0  0  0  0  0  0  0  0  0  0  0
  -93.5768   66.0769  104.1401 Cl  0  0  0  0  0  0  0  0  0  0  0  0
  -91.1555   63.9538  105.0901 C   0  0  0  0  0  3  0  0  0  0  0  0
  -88.2806   61.8762  104.7229 N   0  0  0  0  0  1  0  0  0  0  0  0
  -89.9020   63.3590  105.4838 C   0  0  0  0  0  0  0  0  0  0  0  0
  -87.6692   68.3179  104.9867 C   0  0  0  0  0  3  0  0  0  0  0  0
  -84.9948   71.4721  104.4442 C   0  0  0  0  0  1  0  0  0  0  0  0
  -84.8362   67.4426  104.0129 O   0  0  0  0  0  0  0  0  0  0  0  0
  -91.2795   67.4600  104.3644 N   0  0  0  0  0  0  0  0  0  0  0  0
  -88.2631   65.3933  105.4276 C   0  0  0  0  0  2  0  0  0  0  0  0
  -88.7852   62.6146  105.8657 C   0  0  0  0  0  3  0  0  0  0  0  0
  -84.6223   68.6251  104.2244 C   0  0  0  0  0  3  0  0  0  0  0  0
  -85.4068   69.3681  105.2713 C   0  0  0  0  0  3  0  0  0  0  0  0
  -91.8710   66.3112  104.4660 C   0  0  0  0  0  0  0  0  0  0  0  0
  -88.9539   68.4241  104.6734 C   0  0  0  0  0  3  0  0  0  0  0  0
  -89.6217   66.0213  105.0148 C   0  0  0  0  0  0  0  0  0  0  0  0
  -89.8947   67.2904  104.7004 C   0  0  0  0  0  0  0  0  0  0  0  0
  1 19  1  0
  1 17  1  0
  3  8  2  0
  3 13  1  0
  4 16  1  0
  6  1  2  0
  8  6  1  0
  9  2  1  0
 10  4  1  0
 13 19  1  0
 14  7  1  0
 14  3  1  0
 14  8  1  0
 15 11  2  0
 16 15  1  0
 16  2  1  0
 17  5  1  0
 17 12  2  0
 18  9  2  0
 19 20  2  0
 20 18  1  0
 20 12  1  0
M  RAD  8   2   2   6   2   7   3   9   2  10   2  13   3  14   2  15   2
M  RAD  2  16   2  18   2
M  END
$$$$
/tmp/tmp7hbpe78k
     RDKit          3D

 20 22  0  0  1  0  0  0  0  0999 V2000
  -92.4417   67.0249  102.3627 F   0  0  0  0  0  0  0  0  0  0  0  0
  -84.3278   67.3397  107.1410 C   0  0  0  0  0  3  0  0  0  0  0  0
  -91.4615   67.5787  103.1156 C   0  0  0  0  0  0  0  0  0  0  0  0
  -89.1291   67.6705  103.7932 C   0  0  0  0  0  0  0  0  0  0  0  0
  -88.3392   62.6243  102.1196 C   0  0  0  0  0  2  0  0  0  0  0  0
  -87.6398   60.9864  103.7104 O   0  0  0  0  0  0  0  0  0  0  0  0
  -87.7075   67.2073  103.6337 C   0  0  0  0  0  3  0  0  0  0  0  0
  -87.1651   66.7975  104.8621 C   0  0  0  0  0  0  0  0  0  0  0  0
  -86.5629   67.1160  106.1834 C   0  0  0  0  0  2  0  0  0  0  0  0
  -90.7485   69.2008  104.7648 C   0  0  0  0  0  3  0  0  0  0  0  0
  -89.4356   68.7328  104.6584 C   0  0  0  0  0  3  0  0  0  0  0  0
  -87.7735   62.1619  103.4141 C   0  0  0  0  0  0  0  0  0  0  0  0
  -85.0780   67.0856  106.0741 C   0  0  0  0  0  3  0  0  0  0  0  0
  -82.8433   67.3091  107.0309 C   0  0  0  0  0  1  0  0  0  0  0  0
  -87.3889   63.2823  104.3074 C   0  0  0  0  0  2  0  0  0  0  0  0
  -87.7637   64.4428  103.4587 C   0  0  0  0  0  0  0  0  0  0  0  0
  -90.1489   67.1112  103.0071 C   0  0  0  0  0  3  0  0  0  0  0  0
  -87.5903   65.8295  103.8781 C   0  0  0  0  0  0  0  0  0  0  0  0
  -88.2751   64.1040  102.2820 C   0  0  0  0  0  3  0  0  0  0  0  0
  -91.7616   68.6218  103.9959 C   0  0  0  0  0  3  0  0  0  0  0  0
  2 14  1  0
  3  1  1  0
  4 11  2  0
  4 17  1  0
  5 19  1  0
  5 12  1  0
  6 12  2  0
  7  4  1  0
  8  7  1  0
  8  9  1  0
 10 20  2  0
 11 10  1  0
 12 15  1  0
 13  9  1  0
 13  2  2  0
 15 16  1  0
 16 18  1  0
 17  3  2  0
 18  8  2  0
 18  7  1  0
 19 16  2  0
 20  3  1  0
M  RAD  8   2   2   5   3   7   2   9   3  10   2  11   2  13   2  14   2
M  RAD  4  15   3  17   2  19   2  20   2
M  END
$$$$
/tmp/tmp21uvil3g
     RDKit          3D

 20 23  0  0  1  0  0  0  0  0999 V2000
  -84.5363   67.6159  105.0348 C   0  0  0  0  0  3  0  0  0  0  0  0
  -87.3853   69.7817  105.3481 N   0  0  0  0  0  0  0  0  0  0  0  0
  -91.0794   66.4584  105.5994 C   0  0  0  0  0  3  0  0  0  0  0  0
  -92.5235   64.2915  104.6308 S   0  0  0  0  0  0  0  0  0  0  0  0
  -85.4436   69.5127  106.2221 C   0  0  0  0  0  0  0  0  0  0  0  0
  -83.3687   67.7309  105.8124 C   0  0  0  0  0  3  0  0  0  0  0  0
  -86.8098   68.7244  104.7238 C   0  0  0  0  0  0  0  0  0  0  0  0
  -87.4645   67.9474  103.6509 C   0  0  0  0  0  0  0  0  0  0  0  0
  -90.2321   66.6432  104.5862 C   0  0  0  0  0  0  0  0  0  0  0  0
  -84.3039   69.6551  107.0085 C   0  0  0  0  0  3  0  0  0  0  0  0
  -88.8545   68.2855  103.2177 C   0  0  0  0  0  2  0  0  0  0  0  0
  -85.5560   68.5356  105.2746 C   0  0  0  0  0  0  0  0  0  0  0  0
  -89.8092   67.9726  104.2735 N   0  0  0  0  0  2  0  0  0  0  0  0
  -86.8359   66.9499  103.0415 C   0  0  0  0  0  2  0  0  0  0  0  0
  -91.6190   65.1114  106.0196 C   0  0  0  0  0  3  0  0  0  0  0  0
  -90.9181   63.9254  105.4685 C   0  0  0  0  0  3  0  0  0  0  0  0
  -83.2533   68.7434  106.7922 C   0  0  0  0  0  3  0  0  0  0  0  0
  -89.8152   65.4841  103.7347 C   0  0  0  0  0  2  0  0  0  0  0  0
  -86.5394   70.2292  106.2387 O   0  0  0  0  0  0  0  0  0  0  0  0
  -89.6952   64.2157  104.5751 C   0  0  0  0  0  2  0  0  0  0  0  0
  1 12  2  0
  2 19  1  0
  3  9  2  0
  4 16  1  0
  4 15  1  0
  5 19  1  0
  6  1  1  0
  6 17  2  0
  7  2  2  0
  8  7  1  0
  9 13  1  0
 10  5  2  0
 11  8  1  0
 11 13  1  0
 12  7  1  0
 12  5  1  0
 14  8  2  0
 15  3  1  0
 16 20  1  0
 16 15  1  0
 17 10  1  0
 18  9  1  0
 20 18  1  0
M  RAD  8   1   2   3   2   6   2  10   2  11   3  13   2  14   3  15   2
M  RAD  4  16   2  17   2  18   3  20   3
M  END
$$$$
/tmp/tmpuuaj92cn
     RDKit          3D

 20 20  0  0  1  0  0  0  0  0999 V2000
  -91.3710   64.5492  107.0689 O   0  0  0  0  0  1  0  0  0  0  0  0
  -88.5028   62.8683  104.1822 C   0  0  0  0  0  2  0  0  0  0  0  0
  -87.0408   63.9165  102.4575 C   0  0  0  0  0  0  0  0  0  0  0  0
  -85.2148   64.8011  101.2197 O   0  0  0  0  0  1  0  0  0  0  0  0
  -90.8761   64.4953  105.7660 C   0  0  0  0  0  2  0  0  0  0  0  0
  -89.4907   64.3282  105.8002 O   0  0  0  0  0  0  0  0  0  0  0  0
  -86.0884   63.7662  101.5390 C   0  0  0  0  0  3  0  0  0  0  0  0
  -87.4764   67.7709  104.4798 C   0  0  0  0  0  3  0  0  0  0  0  0
  -87.8922   70.0231  105.7305 C   0  0  0  0  0  0  0  0  0  0  0  0
  -87.2099   65.1995  103.1674 C   0  0  0  0  0  3  0  0  0  0  0  0
  -87.2074   70.4006  106.9868 C   0  0  0  0  0  3  0  0  0  0  0  0
  -89.1056   62.7251  101.7523 C   0  0  0  0  0  1  0  0  0  0  0  0
  -88.1386   65.3653  104.1218 C   0  0  0  0  0  0  0  0  0  0  0  0
  -87.9619   62.7682  102.7545 C   0  0  0  0  0  3  0  0  0  0  0  0
  -89.1054   64.2512  104.4588 C   0  0  0  0  0  3  0  0  0  0  0  0
  -88.2990   66.6381  104.7615 N   0  0  0  0  0  2  0  0  0  0  0  0
  -88.8399   71.0010  105.1275 C   0  0  0  0  0  1  0  0  0  0  0  0
  -87.6801   68.8946  105.1075 C   0  0  0  0  0  0  0  0  0  0  0  0
  -86.3523   69.6717  107.7164 C   0  0  0  0  0  3  0  0  0  0  0  0
  -85.9148   68.2831  107.3916 C   0  0  0  0  0  1  0  0  0  0  0  0
  1  5  1  0
  3 10  1  0
  3 14  1  0
  4  7  1  0
  5  6  1  0
  7  3  2  0
  8 16  1  0
  8 18  2  0
  9 11  1  0
  9 17  1  0
 10 13  2  0
 13 15  1  0
 13 16  1  0
 14 12  1  0
 14  2  1  0
 15  2  1  0
 15  6  1  0
 18  9  2  0
 19 11  2  0
 20 19  1  0
M  RAD  8   1   2   2   3   4   2   5   3   7   2   8   2  10   2  11   2
M  RAD  7  12   2  14   2  15   2  16   2  17   2  19   2  20   2
M  END
$$$$
/tmp/tmpo27hrt0r
     RDKit          3D

 20 21  0  0  1  0  0  0  0  0999 V2000
  -91.9290   66.7463  105.6615 C   0  0  0  0  0  2  0  0  0  0  0  0
  -88.0369   63.9381  104.4088 C   0  0  0  0  0  0  0  0  0  0  0  0
  -90.9090   65.6810  106.0423 C   0  0  0  0  0  2  0  0  0  0  0  0
  -87.3723   64.8831  103.5562 N   0  0  0  0  0  2  0  0  0  0  0  0
  -89.4743   70.3642  106.8401 N   0  0  0  0  0  2  0  0  0  0  0  0
  -88.5228   71.1683  106.1472 C   0  0  0  0  0  3  0  0  0  0  0  0
  -90.9130   65.0521  103.6012 C   0  0  0  0  0  3  0  0  0  0  0  0
  -87.6757   66.3045  103.4704 C   0  0  0  0  0  2  0  0  0  0  0  0
  -87.5287   62.7962  104.5496 O   0  0  0  0  0  0  0  0  0  0  0  0
  -87.4055   70.6483  105.6420 C   0  0  0  0  0  3  0  0  0  0  0  0
  -87.2559   67.0126  104.7465 C   0  0  0  0  0  3  0  0  0  0  0  0
  -90.6832   70.9640  107.3703 C   0  0  0  0  0  1  0  0  0  0  0  0
  -90.0654   65.3376  104.8176 C   0  0  0  0  0  3  0  0  0  0  0  0
  -87.9094   68.3715  104.8153 C   0  0  0  0  0  2  0  0  0  0  0  0
  -89.2190   64.2325  105.1039 O   0  0  0  0  0  0  0  0  0  0  0  0
  -92.1818   65.4770  103.4967 C   0  0  0  0  0  3  0  0  0  0  0  0
  -85.6235   68.9732  105.3427 C   0  0  0  0  0  2  0  0  0  0  0  0
  -85.4510   67.2467  104.7907 S   0  0  0  0  0  0  0  0  0  0  0  0
  -92.8972   66.1748  104.6268 C   0  0  0  0  0  2  0  0  0  0  0  0
  -87.0617   69.1980  105.7522 C   0  0  0  0  0  3  0  0  0  0  0  0
  1  3  1  0
  2 15  1  0
  4  2  1  0
  4  8  1  0
  6  5  1  0
  7 16  2  0
  7 13  1  0
  9  2  2  0
 10  6  2  0
 11  8  1  0
 11 14  1  0
 12  5  1  0
 13 15  1  0
 13  3  1  0
 14 20  1  0
 16 19  1  0
 17 20  1  0
 18 11  1  0
 18 17  1  0
 19  1  1  0
 20 10  1  0
M  RAD  8   1   3   3   3   4   2   5   2   6   2   7   2   8   3  10   2
M  RAD  8  11   2  12   2  13   2  14   3  16   2  17   3  19   3  20   2
M  END
$$$$
/tmp/tmpu9f7lh0m
     RDKit          3D

 20 22  0  0  1  0  0  0  0  0999 V2000
  -83.9276   70.0272  104.0719 C   0  0  0  0  0  3  0  0  0  0  0  0
  -84.0773   67.7316  103.3357 F   0  0  0  0  0  0  0  0  0  0  0  0
  -87.3027   71.2261  107.1479 C   0  0  0  0  0  1  0  0  0  0  0  0
  -89.4408   63.6306  103.8904 C   0  0  0  0  0  0  0  0  0  0  0  0
  -84.8125   71.0166  105.1253 S   0  0  0  0  0  0  0  0  0  0  0  0
  -89.4634   66.1163  103.8916 C   0  0  0  0  0  2  0  0  0  0  0  0
  -87.5427   67.5628  105.9549 C   0  0  0  0  0  0  0  0  0  0  0  0
  -87.3859   62.3787  104.4148 C   0  0  0  0  0  1  0  0  0  0  0  0
  -90.4911   65.1822  105.5243 C   0  0  0  0  0  2  0  0  0  0  0  0
  -84.5368   68.7704  104.0753 C   0  0  0  0  0  0  0  0  0  0  0  0
  -90.2887   64.8533  104.0559 C   0  0  0  0  0  3  0  0  0  0  0  0
  -89.6825   66.4551  105.3569 C   0  0  0  0  0  3  0  0  0  0  0  0
  -87.9458   68.8374  106.6861 C   0  0  0  0  0  2  0  0  0  0  0  0
  -89.8516   62.6986  103.1480 O   0  0  0  0  0  0  0  0  0  0  0  0
  -88.2138   63.5234  104.5514 O   0  0  0  0  0  0  0  0  0  0  0  0
  -86.4912   67.5008  105.1249 C   0  0  0  0  0  3  0  0  0  0  0  0
  -85.6560   68.6809  104.9075 C   0  0  0  0  0  0  0  0  0  0  0  0
  -88.3784   66.3417  106.1357 C   0  0  0  0  0  2  0  0  0  0  0  0
  -87.0389   69.9726  106.4634 N   0  0  0  0  0  0  0  0  0  0  0  0
  -85.9382   69.8497  105.5600 C   0  0  0  0  0  0  0  0  0  0  0  0
  1  5  1  0
  2 10  1  0
  6 12  1  0
  7 18  1  0
  7 13  1  0
  8 15  1  0
 10 17  1  0
 10  1  2  0
 11  4  1  0
 11  6  1  0
 11  9  1  0
 12  9  1  0
 12 18  1  0
 13 19  1  0
 14  4  2  0
 15  4  1  0
 16 17  1  0
 16  7  2  0
 17 20  2  0
 19  3  1  0
 20  5  1  0
 20 19  1  0
M  RAD  8   1   2   3   2   6   3   8   2   9   3  11   2  12   2  13   3
M  RAD  2  16   2  18   3
M  END
$$$$

     RDKit          3D

 17 18  0  0  0  0  0  0  0  0999 V2000
  -91.9706   64.0005  104.9573 C   0  0  0  0  0  2  0  0  0  0  0  0
  -92.6981   61.6970  105.4954 C   0  0  0  0  0  1  0  0  0  0  0  0
  -87.1291   67.2036  104.3013 C   0  0  0  0  0  3  0  0  0  0  0  0
  -85.3000   67.9664  106.0171 C   0  0  0  0  0  2  0  0  0  0  0  0
  -86.6141   68.1537  105.3258 C   0  0  0  0  0  0  0  0  0  0  0  0
  -88.4630   67.8069  103.8846 C   0  0  0  0  0  3  0  0  0  0  0  0
  -83.1757   69.0536  106.5981 C   0  0  0  0  0  3  0  0  0  0  0  0
  -88.4293   66.5606  104.7540 C   0  0  0  0  0  3  0  0  0  0  0  0
  -83.7737   68.7830  104.2236 C   0  0  0  0  0  1  0  0  0  0  0  0
  -87.4180   69.1786  105.5627 C   0  0  0  0  0  3  0  0  0  0  0  0
  -89.7675   64.6954  104.0570 C   0  0  0  0  0  3  0  0  0  0  0  0
  -84.3047   69.0476  105.6227 C   0  0  0  0  0  3  0  0  0  0  0  0
  -88.6958   65.4005  103.9398 N   0  0  0  0  0  0  0  0  0  0  0  0
  -90.8443   65.0140  105.0525 C   0  0  0  0  0  2  0  0  0  0  0  0
  -82.3402   69.9428  106.5717 O   0  0  0  0  0  0  0  0  0  0  0  0
  -91.5625   62.6919  105.6079 C   0  0  0  0  0  2  0  0  0  0  0  0
  -88.6544   69.0599  104.7436 C   0  0  0  0  0  2  0  0  0  0  0  0
  1 14  1  0
  2 16  1  0
  3  5  1  0
  5 10  2  0
  5  4  1  0
  6  3  1  0
  6 17  1  0
  8 13  1  0
  8  6  1  0
  8  3  1  0
 11 14  1  0
 12  9  1  0
 12  4  1  0
 12  7  1  0
 13 11  2  0
 15  7  2  0
 16  1  1  0
 17 10  1  0
M  RAD  8   1   3   2   2   3   2   4   3   6   2   7   2   8   2   9   2
M  RAD  6  10   2  11   2  12   2  14   3  16   3  17   3
M  END
$$$$
/tmp/tmp_fmhz1ws
     RDKit          3D

 20 22  0  0  1  0  0  0  0  0999 V2000
  -89.9287   63.5077  105.1025 C   0  0  0  0  0  3  0  0  0  0  0  0
  -89.4299   62.7353  101.6085 N   0  0  0  0  0  1  0  0  0  0  0  0
  -88.5114   66.0475  105.8196 C   0  0  0  0  0  3  0  0  0  0  0  0
  -87.3547   67.1130  104.1472 C   0  0  0  0  0  3  0  0  0  0  0  0
  -87.1922   67.8479  105.2325 C   0  0  0  0  0  0  0  0  0  0  0  0
  -84.1409   70.9251  106.0437 C   0  0  0  0  0  3  0  0  0  0  0  0
  -89.7862   62.7894  102.9850 C   0  0  0  0  0  0  0  0  0  0  0  0
  -83.8587   69.7126  106.9117 C   0  0  0  0  0  3  0  0  0  0  0  0
  -90.5324   61.8989  103.6115 C   0  0  0  0  0  3  0  0  0  0  0  0
  -88.5840   64.9565  103.6236 N   0  0  0  0  0  2  0  0  0  0  0  0
  -86.2434   69.7931  106.4209 C   0  0  0  0  0  3  0  0  0  0  0  0
  -85.2034   69.1268  107.3026 C   0  0  0  0  0  2  0  0  0  0  0  0
  -90.6693   62.2920  104.9779 N   0  0  0  0  0  2  0  0  0  0  0  0
  -83.4852   72.0941  106.6004 N   0  0  0  0  0  1  0  0  0  0  0  0
  -89.3985   63.8162  103.9284 C   0  0  0  0  0  0  0  0  0  0  0  0
  -88.1845   65.9879  104.5359 C   0  0  0  0  0  0  0  0  0  0  0  0
  -87.8999   67.2704  106.4165 C   0  0  0  0  0  2  0  0  0  0  0  0
  -85.6420   71.1297  106.0496 C   0  0  0  0  0  2  0  0  0  0  0  0
  -82.9400   68.5152  105.9694 Cl  0  0  0  0  0  0  0  0  0  0  0  0
  -86.4419   69.0247  105.2396 O   0  0  0  0  0  0  0  0  0  0  0  0
  1 13  1  0
  2  7  1  0
  3 17  1  0
  4  5  2  0
  5 17  1  0
  5 20  1  0
  6 14  1  0
  6 18  1  0
  7 15  1  0
  7  9  2  0
  8 19  1  0
  8  6  1  0
  9 13  1  0
 10 15  1  0
 10 16  1  0
 11 20  1  0
 11 18  1  0
 12 11  1  0
 12  8  1  0
 15  1  2  0
 16  4  1  0
 16  3  2  0
M  RAD  8   1   2   2   3   3   2   4   2   6   2   8   2   9   2  10   2
M  RAD  6  11   2  12   3  13   2  14   3  17   3  18   3
M  END
$$$$

     RDKit          3D

 10 10  0  0  0  0  0  0  0  0999 V2000
  -89.4869   63.4865  104.8041 C   0  0  0  0  0  0  0  0  0  0  0  0
  -91.9609   62.9520  104.9456 C   0  0  0  0  0  3  0  0  0  0  0  0
  -89.0298   62.0798  104.8543 C   0  0  0  0  0  3  0  0  0  0  0  0
  -88.4734   64.4483  104.7084 C   0  0  0  0  0  3  0  0  0  0  0  0
  -90.8439   63.9131  104.8451 C   0  0  0  0  0  0  0  0  0  0  0  0
  -91.1270   65.2893  104.7884 C   0  0  0  0  0  3  0  0  0  0  0  0
  -93.2373   63.3185  104.9860 C   0  0  0  0  0  2  0  0  0  0  0  0
  -89.8203   61.0179  104.9448 C   0  0  0  0  0  2  0  0  0  0  0  0
  -90.1019   66.2302  104.6932 C   0  0  0  0  0  3  0  0  0  0  0  0
  -88.7746   65.8094  104.6532 C   0  0  0  0  0  3  0  0  0  0  0  0
  1  5  2  0
  1  3  1  0
  2  7  2  0
  2  5  1  0
  3  8  2  0
  4  1  1  0
  4 10  2  0
  5  6  1  0
  9  6  2  0
 10  9  1  0
M  RAD  8   2   2   3   2   4   2   6   2   7   3   8   3   9   2  10   2
M  END
$$$$
/tmp/tmpt8adyo9v
     RDKit          3D

 20 21  0  0  1  0  0  0  0  0999 V2000
  -87.8888   70.1592  103.9668 C   0  0  0  0  0  0  0  0  0  0  0  0
  -84.3325   68.2657  106.5214 C   0  0  0  0  0  2  0  0  0  0  0  0
  -90.8906   62.4865  101.0773 N   0  0  0  0  0  1  0  0  0  0  0  0
  -85.1248   69.8966  103.9636 S   0  0  0  0  0  0  0  0  0  0  0  0
  -87.8076   67.2315  105.7616 C   0  0  0  0  0  3  0  0  0  0  0  0
  -86.6886   67.6765  104.8253 C   0  0  0  0  0  2  0  0  0  0  0  0
  -83.7434   68.1803  107.9133 C   0  0  0  0  0  1  0  0  0  0  0  0
  -90.4009   63.0763  102.2754 C   0  0  0  0  0  0  0  0  0  0  0  0
  -89.0013   69.8219  104.4494 O   0  0  0  0  0  0  0  0  0  0  0  0
  -90.2258   63.6266  104.3800 C   0  0  0  0  0  3  0  0  0  0  0  0
  -88.1870   65.0588  104.5055 C   0  0  0  0  0  2  0  0  0  0  0  0
  -89.2070   64.2380  103.7950 C   0  0  0  0  0  0  0  0  0  0  0  0
  -86.6950   70.2913  104.8710 C   0  0  0  0  0  3  0  0  0  0  0  0
  -86.0684   69.0109  105.2715 C   0  0  2  0  0  0  0  0  0  0  0  0
  -85.4801   69.0701  106.5485 O   0  0  0  0  0  0  0  0  0  0  0  0
  -87.2530   66.5366  106.9948 C   0  0  0  0  0  1  0  0  0  0  0  0
  -87.7962   70.4850  102.5831 N   0  0  0  0  0  1  0  0  0  0  0  0
  -88.8149   66.3433  105.0364 C   0  0  0  0  0  2  0  0  0  0  0  0
  -90.9779   62.9016  103.4165 N   0  0  0  0  0  0  0  0  0  0  0  0
  -89.1904   63.9392  102.3385 C   0  0  0  0  0  2  0  0  0  0  0  0
  1  9  2  0
  2  7  1  0
  2 15  1  0
  3  8  1  0
  4 13  1  0
  5  6  1  0
  5 16  1  0
  8 19  2  0
  8 20  1  0
 10 12  2  0
 11 18  1  0
 12 11  1  0
 13  1  1  0
 14  4  1  0
 14 15  1  0
 14  6  1  1
 14 13  1  0
 17  1  1  0
 18  5  1  0
 19 10  1  0
 20 12  1  0
M  RAD  8   2   3   3   3   5   2   6   3   7   2  10   2  11   3  13   2
M  RAD  4  16   2  17   3  18   3  20   3
M  END
$$$$

     RDKit          3D

 12 13  0  0  0  0  0  0  0  0999 V2000
  -92.1097   66.8129  106.6671 C   0  0  0  0  0  3  0  0  0  0  0  0
  -89.6539   61.1218  101.5232 O   0  0  0  0  0  1  0  0  0  0  0  0
  -90.8372   67.6189  106.3904 C   0  0  0  0  0  2  0  0  0  0  0  0
  -89.7858   61.8769  103.0421 S   0  0  0  0  0  0  0  0  0  0  0  0
  -89.3474   64.2669  103.9265 C   0  0  0  0  0  2  0  0  0  0  0  0
  -93.0957   66.9486  105.5202 C   0  0  0  0  0  2  0  0  0  0  0  0
  -90.5708   65.1131  103.6174 C   0  0  0  0  0  2  0  0  0  0  0  0
  -90.9352   65.9568  104.7948 C   0  0  0  0  0  0  0  0  0  0  0  0
  -90.1856   66.9579  105.2284 C   0  0  0  0  0  3  0  0  0  0  0  0
  -89.0247   63.4328  102.7817 N   0  0  0  0  0  2  0  0  0  0  0  0
  -88.7696   61.1264  103.8919 O   0  0  0  0  0  0  0  0  0  0  0  0
  -92.1776   65.7399  105.5873 C   0  0  0  0  0  3  0  0  0  0  0  0
  1  6  1  0
  1  3  1  0
  4  2  1  6
  4 10  1  0
  4 11  2  0
  5  7  1  0
  7  8  1  0
  8 12  1  0
  8  9  2  0
  9  3  1  0
 10  5  1  0
 12  6  1  0
 12  1  1  0
M  RAD  8   1   2   2   2   3   3   5   3   6   3   7   3   9   2  10   2
M  RAD  1  12   2
M  END
$$$$
/tmp/tmp63nam277
     RDKit          3D

 20 19  0  0  0  0  0  0  0  0999 V2000
  -86.3856   63.7586  101.1792 O   0  0  0  0  0  1  0  0  0  0  0  0
  -89.6695   65.5476  105.4963 C   0  0  0  0  0  2  0  0  0  0  0  0
  -90.4567   65.0188  103.1986 C   0  0  0  0  0  3  0  0  0  0  0  0
  -88.7866   63.9033  100.5226 C   0  0  0  0  0  2  0  0  0  0  0  0
  -86.6345   70.5687  107.2671 C   0  0  0  0  0  2  0  0  0  0  0  0
  -90.2749   62.3649  101.5016 O   0  0  0  0  0  0  0  0  0  0  0  0
  -84.9082   71.3854  105.5269 C   0  0  0  0  0  2  0  0  0  0  0  0
  -83.8154   70.4450  105.0554 C   0  0  0  0  0  1  0  0  0  0  0  0
  -89.1267   66.3713  107.7884 C   0  0  0  0  0  2  0  0  0  0  0  0
  -90.0409   66.5379  106.5835 C   0  0  0  0  0  2  0  0  0  0  0  0
  -86.6251   69.0777  107.2622 C   0  0  0  0  0  3  0  0  0  0  0  0
  -90.5643   65.7447  104.3154 C   0  0  0  0  0  3  0  0  0  0  0  0
  -84.4623   71.2665  107.8391 O   0  0  0  0  0  0  0  0  0  0  0  0
  -85.2737   71.0878  106.9443 C   0  0  0  0  0  0  0  0  0  0  0  0
  -87.4434   63.2664  100.4264 C   0  0  0  0  0  0  0  0  0  0  0  0
  -87.7434   68.4055  107.5124 C   0  0  0  0  0  3  0  0  0  0  0  0
  -87.7331   66.9137  107.5074 C   0  0  0  0  0  2  0  0  0  0  0  0
  -89.5509   63.3324  101.6722 C   0  0  0  0  0  0  0  0  0  0  0  0
  -87.2742   62.2624   99.6870 O   0  0  0  0  0  0  0  0  0  0  0  0
  -89.4307   63.9423  103.0288 C   0  0  0  0  0  2  0  0  0  0  0  0
  2 10  1  0
  3 12  2  0
  4 18  1  0
  5 11  1  0
  6 18  2  0
  7 14  1  0
  8  7  1  0
  9 17  1  0
 10  9  1  0
 12  2  1  0
 14 13  2  0
 14  5  1  0
 15  1  1  0
 15  4  1  0
 16 11  2  0
 16 17  1  0
 18 20  1  0
 19 15  2  0
 20  3  1  0
M  RAD  8   1   2   2   3   3   2   4   3   5   3   7   3   8   2   9   3
M  RAD  6  10   3  11   2  12   2  16   2  17   3  20   3
M  END
$$$$

     RDKit          3D

 10 10  0  0  0  0  0  0  0  0999 V2000
  -84.4103   69.2042  104.0331 C   0  0  0  0  0  3  0  0  0  0  0  0
  -86.5822   68.0628  107.5372 O   0  0  0  0  0  1  0  0  0  0  0  0
  -87.5407   68.2635  105.4646 O   0  0  0  0  0  0  0  0  0  0  0  0
  -82.5481   70.5717  104.7598 C   0  0  0  0  0  3  0  0  0  0  0  0
  -84.3516   68.4847  105.2324 C   0  0  0  0  0  0  0  0  0  0  0  0
  -85.3247   67.3856  105.4924 C   0  0  0  0  0  2  0  0  0  0  0  0
  -83.3934   68.8156  106.1977 C   0  0  0  0  0  3  0  0  0  0  0  0
  -82.4913   69.8573  105.9605 C   0  0  0  0  0  3  0  0  0  0  0  0
  -86.5487   67.9169  106.1568 C   0  0  0  0  0  0  0  0  0  0  0  0
  -83.5079   70.2457  103.7965 C   0  0  0  0  0  3  0  0  0  0  0  0
  1  5  2  0
  3  9  2  0
  4  8  1  0
  5  7  1  0
  6  5  1  0
  6  9  1  0
  7  8  2  0
  9  2  1  0
 10  1  1  0
 10  4  2  0
M  RAD  7   1   2   2   2   4   2   6   3   7   2   8   2  10   2
M  END
$$$$
/tmp/tmpcq9w9_rv
     RDKit          3D

 20 21  0  0  0  0  0  0  0  0999 V2000
  -88.1567   65.9176  103.9076 N   0  0  0  0  0  0  0  0  0  0  0  0
  -88.1351   62.3778  103.8495 N   0  0  0  0  0  0  0  0  0  0  0  0
  -85.4103   69.1878  104.4863 N   0  0  0  0  0  2  0  0  0  0  0  0
  -92.4170   66.8512  105.1820 C   0  0  0  0  0  1  0  0  0  0  0  0
  -81.9243   68.7872  105.7684 C   0  0  0  0  0  2  0  0  0  0  0  0
  -90.6234   65.2514  105.4415 C   0  0  0  0  0  0  0  0  0  0  0  0
  -86.2467   68.0599  104.8584 C   0  0  0  0  0  2  0  0  0  0  0  0
  -84.0356   69.2653  104.8616 C   0  0  0  0  0  0  0  0  0  0  0  0
  -91.4130   66.1242  106.0016 C   0  0  0  0  0  0  0  0  0  0  0  0
  -83.3054   70.2677  104.5273 N   0  0  0  0  0  0  0  0  0  0  0  0
  -91.2866   66.4166  107.4531 C   0  0  0  0  0  1  0  0  0  0  0  0
  -88.5320   67.0921  104.6829 C   0  0  0  0  0  2  0  0  0  0  0  0
  -90.2673   62.9326  104.9010 C   0  0  0  0  0  2  0  0  0  0  0  0
  -83.3337   68.2265  105.6513 C   0  0  0  0  0  2  0  0  0  0  0  0
  -88.1462   63.6381  103.1292 C   0  0  0  0  0  2  0  0  0  0  0  0
  -87.6456   68.2657  104.3109 C   0  0  0  0  0  2  0  0  0  0  0  0
  -81.9509   70.1186  105.0219 C   0  0  0  0  0  2  0  0  0  0  0  0
  -89.0865   62.0310  104.6516 C   0  0  0  0  0  3  0  0  0  0  0  0
  -88.6992   64.7361  103.9892 C   0  0  0  0  0  0  0  0  0  0  0  0
  -89.8376   64.3698  104.8817 C   0  0  0  0  0  0  0  0  0  0  0  0
  1 12  1  0
  2 15  1  0
  2 18  2  0
  3  7  1  0
  4  9  1  0
  5 14  1  0
  6  9  2  0
  7 16  1  0
  8  3  1  0
  8 14  1  0
  9 11  1  0
 10 17  1  0
 10  8  2  0
 12 16  1  0
 13 20  1  0
 15 19  1  0
 17  5  1  0
 18 13  1  0
 19  1  2  0
 19 20  1  0
 20  6  2  0
M  RAD  8   3   2   4   2   5   3   7   3  11   2  12   3  13   3  14   3
M  RAD  4  15   3  16   3  17   3  18   2
M  END
$$$$
/tmp/tmpa__uczmq
     RDKit          3D

 20 22  0  0  1  0  0  0  0  0999 V2000
  -89.9033   66.5254  105.2612 N   0  0  0  0  0  0  0  0  0  0  0  0
  -88.6056   64.4996  105.6477 C   0  0  0  0  0  0  0  0  0  0  0  0
  -86.4675   67.2437  105.7180 N   0  0  0  0  0  2  0  0  0  0  0  0
  -91.0148   65.7202  105.1840 C   0  0  0  0  0  3  0  0  0  0  0  0
  -90.9408   64.2936  105.3367 C   0  0  0  0  0  0  0  0  0  0  0  0
  -85.6297   69.0283  104.3971 N   0  0  0  0  0  0  0  0  0  0  0  0
  -84.9655   69.1026  103.1062 C   0  0  0  0  0  2  0  0  0  0  0  0
  -86.5351   70.1695  104.4351 C   0  0  0  0  0  2  0  0  0  0  0  0
  -89.5255   62.1808  105.7479 C   0  0  0  0  0  0  0  0  0  0  0  0
  -90.6498   61.3065  105.7198 N   0  0  0  0  0  1  0  0  0  0  0  0
  -88.3767   61.6908  105.9159 O   0  0  0  0  0  0  0  0  0  0  0  0
  -84.8739   70.5633  102.7356 C   0  0  0  0  0  3  0  0  0  0  0  0
  -85.0561   70.7312  101.2409 C   0  0  0  0  0  1  0  0  0  0  0  0
  -87.2019   64.7303  105.8260 C   0  0  0  0  0  2  0  0  0  0  0  0
  -86.0108   71.2221  103.4758 C   0  0  0  0  0  2  0  0  0  0  0  0
  -88.7455   65.8803  105.4885 C   0  0  0  0  0  0  0  0  0  0  0  0
  -87.3181   66.1325  105.6664 N   0  0  0  0  0  0  0  0  0  0  0  0
  -92.1164   63.5589  105.2398 O   0  0  0  0  0  1  0  0  0  0  0  0
  -86.4467   67.8278  104.3875 C   0  0  0  0  0  2  0  0  0  0  0  0
  -89.6893   63.6417  105.5808 C   0  0  0  0  0  0  0  0  0  0  0  0
  2 20  1  0
  2 16  2  0
  3 19  1  0
  4  1  2  0
  5  4  1  0
  5 18  1  0
  6  7  1  0
  8  6  1  0
  9 20  1  0
  9 10  1  0
 11  9  2  0
 12 13  1  0
 12 15  1  0
 12  7  1  0
 14  2  1  0
 14 17  1  0
 15  8  1  0
 16  1  1  0
 17 16  1  0
 17  3  1  0
 19  6  1  0
 20  5  2  0
M  RAD  8   3   2   4   2   7   3   8   3  10   3  12   2  13   2  14   3
M  RAD  3  15   3  18   2  19   3
M  END
$$$$
/tmp/tmp4ikayfkz
     RDKit          3D

 20 22  0  0  1  0  0  0  0  0999 V2000
  -90.0719   66.7529  104.9074 C   0  0  0  0  0  0  0  0  0  0  0  0
  -86.4675   68.8204  106.2221 N   0  0  0  0  0  0  0  0  0  0  0  0
  -89.5386   63.5016  103.4927 C   0  0  0  0  0  3  0  0  0  0  0  0
  -88.3554   64.2066  102.9184 C   0  0  0  0  0  3  0  0  0  0  0  0
  -88.4567   64.2339  101.4286 C   0  0  0  0  0  3  0  0  0  0  0  0
  -89.5669   65.5556  104.1927 C   0  0  0  0  0  0  0  0  0  0  0  0
  -85.5172   68.2195  107.1445 C   0  0  0  0  0  2  0  0  0  0  0  0
  -85.5686   66.7784  106.7699 C   0  0  0  0  0  0  0  0  0  0  0  0
  -88.5088   65.5507  103.4531 N   0  0  0  0  0  0  0  0  0  0  0  0
  -87.5795   64.7582  100.7620 O   0  0  0  0  0  0  0  0  0  0  0  0
  -91.1754   68.9492  106.2807 C   0  0  0  0  0  3  0  0  0  0  0  0
  -84.6407   65.5111  107.5419 Cl  0  0  0  0  0  0  0  0  0  0  0  0
  -91.8813   67.7500  106.1991 C   0  0  0  0  0  3  0  0  0  0  0  0
  -89.3563   67.9758  104.9976 C   0  0  0  0  0  0  0  0  0  0  0  0
  -91.3318   66.6623  105.5185 C   0  0  0  0  0  3  0  0  0  0  0  0
  -86.4130   66.5776  105.7748 C   0  0  0  0  0  3  0  0  0  0  0  0
  -90.2314   64.3004  104.2323 N   0  0  0  0  0  0  0  0  0  0  0  0
  -89.9187   69.0591  105.6850 C   0  0  0  0  0  3  0  0  0  0  0  0
  -87.9850   68.1572  104.4254 C   0  0  0  0  0  2  0  0  0  0  0  0
  -86.9443   67.8932  105.4615 C   0  0  0  0  0  0  0  0  0  0  0  0
  1 15  2  0
  1 14  1  0
  2  7  1  0
  3 17  2  0
  4  5  1  0
  4  9  1  0
  4  3  1  0
  6  1  1  0
  8  7  1  0
  9  6  2  0
 10  5  2  0
 12  8  1  0
 13 11  2  0
 14 18  2  0
 15 13  1  0
 16  8  2  0
 16 20  1  0
 17  6  1  0
 18 11  1  0
 19 20  1  0
 19 14  1  0
 20  2  2  0
M  RAD  8   3   2   4   2   5   2   7   3  11   2  13   2  15   2  16   2
M  RAD  2  18   2  19   3
M  END
$$$$

     RDKit          3D

 16 17  0  0  0  0  0  0  0  0999 V2000
  -90.2576   68.9831  105.7459 O   0  0  0  0  0  0  0  0  0  0  0  0
  -88.2745   64.5536  104.5998 C   0  0  0  0  0  0  0  0  0  0  0  0
  -89.2099   66.8119  105.1908 C   0  0  0  0  0  0  0  0  0  0  0  0
  -88.1686   65.9436  105.0253 C   0  0  0  0  0  0  0  0  0  0  0  0
  -90.5646   64.7691  104.4569 C   0  0  0  0  0  3  0  0  0  0  0  0
  -86.7583   69.2606  106.1445 C   0  0  0  0  0  3  0  0  0  0  0  0
  -90.2139   70.2661  106.1336 O   0  0  0  0  0  1  0  0  0  0  0  0
  -87.0305   65.1353  104.8865 C   0  0  0  0  0  2  0  0  0  0  0  0
  -87.9239   68.7401  105.8837 C   0  0  0  0  0  0  0  0  0  0  0  0
  -89.5107   62.4951  103.8718 C   0  0  0  0  0  0  0  0  0  0  0  0
  -88.4638   61.8040  103.7598 O   0  0  0  0  0  0  0  0  0  0  0  0
  -90.7739   61.9059  103.5811 N   0  0  0  0  0  1  0  0  0  0  0  0
  -89.0965   68.2161  105.6212 C   0  0  0  0  0  0  0  0  0  0  0  0
  -85.5182   68.5134  105.8091 C   0  0  0  0  0  1  0  0  0  0  0  0
  -90.4583   66.1646  104.8841 C   0  0  0  0  0  3  0  0  0  0  0  0
  -89.4305   63.8975  104.2988 C   0  0  0  0  0  0  0  0  0  0  0  0
  1 13  1  0
  1  7  1  0
  2 16  1  0
  3 13  1  0
  3 15  2  0
  4  2  2  0
  4  3  1  0
  6 14  1  0
  8  4  1  0
  8  2  1  0
  9  6  2  0
 10 16  1  0
 10 12  1  0
 11 10  2  0
 13  9  2  0
 15  5  1  0
 16  5  2  0
M  RAD  7   5   2   6   2   7   2   8   3  12   3  14   2  15   2
M  END
$$$$
/tmp/tmp1wfuhzqc
     RDKit          3D

 20 23  0  0  1  0  0  0  0  0999 V2000
  -87.9476   63.9760  102.8266 N   0  0  0  0  0  2  0  0  0  0  0  0
  -86.0826   67.0723  107.1866 C   0  0  0  0  0  2  0  0  0  0  0  0
  -91.5714   66.1251  104.0381 C   0  0  1  0  0  0  0  0  0  0  0  0
  -90.4212   65.1751  103.8177 C   0  0  0  0  0  0  0  0  0  0  0  0
  -89.6401   66.2768  106.6323 C   0  0  0  0  0  2  0  0  0  0  0  0
  -88.9200   66.6313  105.3421 C   0  0  0  0  0  3  0  0  0  0  0  0
  -88.1370   66.1487  106.5562 C   0  0  0  0  0  3  0  0  0  0  0  0
  -92.8349   65.4861  104.3723 C   0  0  0  0  0  2  0  0  0  0  0  0
  -90.6082   64.0810  103.2136 O   0  0  0  0  0  0  0  0  0  0  0  0
  -84.1654   69.5157  105.0841 C   0  0  0  0  0  3  0  0  0  0  0  0
  -84.8041   68.7886  104.1778 C   0  0  0  0  0  3  0  0  0  0  0  0
  -89.0682   65.5286  104.3283 C   0  0  0  0  0  0  0  0  0  0  0  0
  -85.6098   67.7812  104.8502 C   0  0  0  0  0  3  0  0  0  0  0  0
  -84.4985   69.0400  106.4577 C   0  0  0  0  0  2  0  0  0  0  0  0
  -87.5206   67.2917  107.2069 N   0  0  0  0  0  2  0  0  0  0  0  0
  -87.9471   64.9761  103.8419 C   0  0  0  0  0  3  0  0  0  0  0  0
  -91.7427   67.0867  102.9616 C   0  0  0  0  0  2  0  0  0  0  0  0
  -86.7779   63.4684  102.3767 O   0  0  0  0  0  1  0  0  0  0  0  0
  -85.4428   67.9352  106.1520 C   0  0  0  0  0  0  0  0  0  0  0  0
  -92.5940   65.8874  102.9764 N   0  0  0  0  0  0  0  0  0  0  0  0
  1 16  1  0
  2 19  1  0
  3  4  1  6
  3 20  1  0
  3 17  1  0
  6 12  1  0
  6  7  1  0
  6  5  1  0
  7  5  1  0
  7 15  1  0
  8  3  1  0
  9  4  2  0
 10 14  1  0
 11 10  2  0
 12  4  1  0
 13 11  1  0
 13 19  2  0
 15  2  1  0
 16 12  2  0
 18  1  1  0
 19 14  1  0
 20  8  1  0
 20 17  1  0
M  RAD  8   1   2   2   3   5   3   6   2   7   2   8   3  10   2  11   2
M  RAD  6  13   2  14   3  15   2  16   2  17   3  18   2
M  END
$$$$
/tmp/tmp6dpp29pw
     RDKit          3D

 20 22  0  0  1  0  0  0  0  0999 V2000
  -91.4369   62.4795  104.2150 C   0  0  0  0  0  3  0  0  0  0  0  0
  -89.5428   63.9988  103.9198 C   0  0  0  0  0  3  0  0  0  0  0  0
  -93.4573   63.5335  105.2871 N   0  0  0  0  0  2  0  0  0  0  0  0
  -86.4782   69.3218  105.5512 C   0  0  0  0  0  0  0  0  0  0  0  0
  -82.7463   69.8982  105.9115 C   0  0  0  0  0  3  0  0  0  0  0  0
  -90.2813   65.0513  104.4908 C   0  0  0  0  0  0  0  0  0  0  0  0
  -93.6994   64.9018  105.7676 C   0  0  0  0  0  2  0  0  0  0  0  0
  -84.1057   69.9469  105.2454 C   0  0  0  0  0  3  0  0  0  0  0  0
  -89.0043   66.5025  106.0225 C   0  0  0  0  0  2  0  0  0  0  0  0
  -83.1446   68.8226  104.9231 C   0  0  0  0  0  2  0  0  0  0  0  0
  -89.6756   66.4016  104.6630 C   0  0  0  0  0  2  0  0  0  0  0  0
  -92.1357   63.5444  104.7802 C   0  0  0  0  0  0  0  0  0  0  0  0
  -87.0929   67.9719  105.3851 C   0  0  0  0  0  2  0  0  0  0  0  0
  -87.0555   70.3152  105.1367 O   0  0  0  0  0  0  0  0  0  0  0  0
  -88.3719   67.8707  106.1997 C   0  0  0  0  0  2  0  0  0  0  0  0
  -81.8295   70.8900  105.2273 C   0  0  0  0  0  1  0  0  0  0  0  0
  -85.1520   69.4502  106.2256 C   0  0  0  0  0  2  0  0  0  0  0  0
  -90.1202   62.7185  103.7807 C   0  0  0  0  0  3  0  0  0  0  0  0
  -91.5822   64.7770  104.9151 C   0  0  0  0  0  0  0  0  0  0  0  0
  -92.4915   65.6296  105.5076 O   0  0  0  0  0  0  0  0  0  0  0  0
  1 12  2  0
  2  6  1  0
  3  7  1  0
  4 14  2  0
  5 16  1  0
  5 10  1  0
  5  8  1  0
  6 19  2  0
  6 11  1  0
  8 17  1  0
  9 15  1  0
 10  8  1  0
 11  9  1  0
 12 19  1  0
 12  3  1  0
 13 15  1  0
 13  4  1  0
 17  4  1  0
 18  1  1  0
 18  2  2  0
 19 20  1  0
 20  7  1  0
M  RAD  8   1   2   2   2   3   2   5   2   7   3   8   2   9   3  10   3
M  RAD  6  11   3  13   3  15   3  16   2  17   3  18   2
M  END
$$$$
/tmp/tmpuqu9jpqo
     RDKit          3D

 20 22  0  0  0  0  0  0  0  0999 V2000
  -89.7809   65.4437  104.7276 C   0  0  0  0  0  0  0  0  0  0  0  0
  -84.6865   69.4288  105.6723 C   0  0  0  0  0  0  0  0  0  0  0  0
  -83.5250   68.6721  105.8594 C   0  0  0  0  0  3  0  0  0  0  0  0
  -89.1811   64.8148  103.6149 C   0  0  0  0  0  0  0  0  0  0  0  0
  -88.3846   65.5830  102.6167 C   0  0  0  0  0  1  0  0  0  0  0  0
  -85.9743   67.3636  105.5170 C   0  0  0  0  0  0  0  0  0  0  0  0
  -90.7924   63.3292  105.3595 C   0  0  0  0  0  3  0  0  0  0  0  0
  -84.5521   71.1820  105.6611 Cl  0  0  0  0  0  0  0  0  0  0  0  0
  -87.1065   69.5038  105.3121 C   0  0  0  0  0  3  0  0  0  0  0  0
  -90.5968   64.6944  105.5827 C   0  0  0  0  0  3  0  0  0  0  0  0
  -89.6163   66.8099  104.9899 O   0  0  0  0  0  0  0  0  0  0  0  0
  -90.3695   61.3473  104.0527 O   0  0  0  0  0  1  0  0  0  0  0  0
  -83.5832   67.2760  105.8761 C   0  0  0  0  0  3  0  0  0  0  0  0
  -90.1797   62.7047  104.2713 C   0  0  0  0  0  0  0  0  0  0  0  0
  -88.3232   68.8379  105.1410 C   0  0  0  0  0  3  0  0  0  0  0  0
  -88.3755   67.4406  105.1494 C   0  0  0  0  0  0  0  0  0  0  0  0
  -85.9224   68.7782  105.4994 C   0  0  0  0  0  0  0  0  0  0  0  0
  -87.1946   66.7065  105.3462 C   0  0  0  0  0  3  0  0  0  0  0  0
  -84.8056   66.6225  105.7053 C   0  0  0  0  0  3  0  0  0  0  0  0
  -89.3828   63.4481  103.3974 C   0  0  0  0  0  3  0  0  0  0  0  0
  1 10  2  0
  2  8  1  0
  3  2  2  0
  4 20  2  0
  4  1  1  0
  5  4  1  0
  6 17  2  0
 10  7  1  0
 11  1  1  0
 11 16  1  0
 13  3  1  0
 14 12  1  0
 14  7  2  0
 15  9  2  0
 16 15  1  0
 17  2  1  0
 17  9  1  0
 18 16  2  0
 18  6  1  0
 19  6  1  0
 19 13  2  0
 20 14  1  0
M  RAD  8   3   2   5   2   7   2   9   2  10   2  12   2  13   2  15   2
M  RAD  3  18   2  19   2  20   2
M  END
$$$$

     RDKit          3D

 18 17  0  0  0  0  0  0  0  0999 V2000
  -92.9542   65.5428  104.8176 O   0  0  0  0  0  0  0  0  0  0  0  0
  -87.9754   65.5271  103.3145 C   0  0  0  0  0  2  0  0  0  0  0  0
  -91.5164   65.3520  107.1991 C   0  0  0  0  0  2  0  0  0  0  0  0
  -83.4580   69.3025  103.3372 C   0  0  0  0  0  1  0  0  0  0  0  0
  -91.8984   66.2155  104.9630 C   0  0  0  0  0  0  0  0  0  0  0  0
  -87.8589   65.5107  103.2025 C   0  0  0  0  0  1  0  0  0  0  0  0
  -87.5190   67.3475  105.4880 N   0  0  0  0  0  0  0  0  0  0  0  0
  -89.7495   66.7301  106.2917 C   0  0  0  0  0  0  0  0  0  0  0  0
  -88.9142   65.6764  104.2398 C   0  0  0  0  0  0  0  0  0  0  0  0
  -87.3073   68.2502  106.3585 N   0  0  0  0  0  0  0  0  0  0  0  0
  -91.0445   66.0249  106.1543 C   0  0  0  0  0  0  0  0  0  0  0  0
  -86.0304   68.9404  106.4061 C   0  0  0  0  0  2  0  0  0  0  0  0
  -91.5560   67.1547  103.9972 O   0  0  0  0  0  1  0  0  0  0  0  0
  -84.5320   70.5457  105.2164 C   0  0  0  0  0  2  0  0  0  0  0  0
  -88.7583   66.6177  105.3728 C   0  0  0  0  0  0  0  0  0  0  0  0
  -83.4198   69.5829  104.8277 C   0  0  0  0  0  2  0  0  0  0  0  0
  -89.5676   67.5032  107.4352 O   0  0  0  0  0  1  0  0  0  0  0  0
  -85.8890   69.8588  105.2034 C   0  0  0  0  0  2  0  0  0  0  0  0
  1  5  2  0
  2  9  2  0
  3 11  2  0
  4 16  1  0
  5 13  1  0
  6  9  1  0
  7 15  1  0
  7 10  2  0
  8 17  1  0
  9 15  1  0
 11  5  1  0
 11  8  1  0
 12 10  1  0
 15  8  2  0
 16 14  1  0
 18 12  1  0
 18 14  1  0
M  RAD  8   2   3   3   3   4   2   6   2  12   3  13   2  14   3  16   3
M  RAD  2  17   2  18   3
M  END
$$$$
/tmp/tmpe26rwsvh
     RDKit          3D

 20 22  0  0  1  0  0  0  0  0999 V2000
  -82.8392   69.6066  104.0256 O   0  0  0  0  0  1  0  0  0  0  0  0
  -88.4386   64.7484  106.6254 N   0  0  0  0  0  0  0  0  0  0  0  0
  -91.5057   67.6747  107.2647 C   0  0  0  0  0  3  0  0  0  0  0  0
  -89.6132   67.8292  105.2022 C   0  0  0  0  0  0  0  0  0  0  0  0
  -85.1711   69.0855  103.8089 C   0  0  0  0  0  3  0  0  0  0  0  0
  -87.2044   68.1521  104.6817 C   0  0  0  0  0  3  0  0  0  0  0  0
  -86.1714   67.9748  103.5896 C   0  0  0  0  0  2  0  0  0  0  0  0
  -89.0589   65.3724  105.4664 C   0  0  0  0  0  3  0  0  0  0  0  0
  -91.2829   68.8872  106.6100 C   0  0  0  0  0  3  0  0  0  0  0  0
  -87.0568   69.4960  105.2253 N   0  0  0  0  0  2  0  0  0  0  0  0
  -88.9110   63.5514  106.7240 C   0  0  0  0  0  3  0  0  0  0  0  0
  -89.8578   63.2437  105.7113 N   0  0  0  0  0  0  0  0  0  0  0  0
  -83.5783   67.6602  105.1918 C   0  0  0  0  0  1  0  0  0  0  0  0
  -83.7461   68.5483  103.9665 C   0  0  0  0  0  3  0  0  0  0  0  0
  -85.6569   69.8396  105.0325 C   0  0  0  0  0  2  0  0  0  0  0  0
  -90.7841   66.5380  106.8937 C   0  0  0  0  0  3  0  0  0  0  0  0
  -88.5999   67.9610  104.1084 C   0  0  0  0  0  2  0  0  0  0  0  0
  -90.3390   68.9637  105.5835 C   0  0  0  0  0  3  0  0  0  0  0  0
  -89.8311   66.6024  105.8633 C   0  0  0  0  0  0  0  0  0  0  0  0
  -89.9625   64.2937  104.9692 C   0  0  0  0  0  3  0  0  0  0  0  0
  1 14  1  0
  2  8  1  0
  3  9  2  0
  4 18  2  0
  5 14  1  0
  5 15  1  0
  6 17  1  0
  6 10  1  0
  7  5  1  0
  7  6  1  0
  8 19  1  0
 10 15  1  0
 11  2  2  0
 12 11  1  0
 12 20  2  0
 14 13  1  0
 16  3  1  0
 17  4  1  0
 18  9  1  0
 19 16  2  0
 19  4  1  0
 20  8  1  0
M  RAD  8   1   2   3   2   5   2   6   2   7   3   8   2   9   2  10   2
M  RAD  8  11   2  13   2  14   2  15   3  16   2  17   3  18   2  20   2
M  END
$$$$
/tmp/tmp51xctegq
     RDKit          3D

 20 23  0  0  1  0  0  0  0  0999 V2000
  -88.5962   64.4300  103.4142 C   0  0  0  0  0  0  0  0  0  0  0  0
  -87.3900   68.8620  106.8097 C   0  0  0  0  0  3  0  0  0  0  0  0
  -90.2307   68.1758  105.5191 C   0  0  0  0  0  2  0  0  0  0  0  0
  -87.7571   67.8839  105.7119 C   0  0  0  0  0  3  0  0  0  0  0  0
  -90.7098   67.3785  104.3114 C   0  0  0  0  0  2  0  0  0  0  0  0
  -88.1988   62.3889  102.2598 O   0  0  0  0  0  0  0  0  0  0  0  0
  -88.5292   69.7707  106.3787 C   0  0  0  0  0  2  0  0  0  0  0  0
  -89.1622   64.0247  104.5444 C   0  0  0  0  0  3  0  0  0  0  0  0
  -86.1598   69.4739  106.5016 O   0  0  0  0  0  0  0  0  0  0  0  0
  -86.1055   61.9332  103.1977 N   0  0  0  0  0  2  0  0  0  0  0  0
  -87.6346   63.6198  102.6057 C   0  0  0  0  0  3  0  0  0  0  0  0
  -85.5338   68.6458  105.5572 C   0  0  0  0  0  3  0  0  0  0  0  0
  -86.5989   67.9370  104.7620 C   0  0  0  0  0  2  0  0  0  0  0  0
  -90.0336   65.0889  105.0227 C   0  0  0  0  0  3  0  0  0  0  0  0
  -86.3749   63.3400  103.3816 C   0  0  0  0  0  2  0  0  0  0  0  0
  -87.1200   61.4917  102.2523 C   0  0  0  0  0  2  0  0  0  0  0  0
  -89.9592   66.0961  104.1654 C   0  0  0  0  0  0  0  0  0  0  0  0
  -88.8722   68.8113  105.2539 C   0  0  0  0  0  3  0  0  0  0  0  0
  -84.4365   69.7098  104.3737 Br  0  0  0  0  0  0  0  0  0  0  0  0
  -89.0492   65.7929  103.0291 C   0  0  0  0  0  2  0  0  0  0  0  0
  1  8  2  0
  1 20  1  0
  2  7  1  0
  4 13  1  0
  4 18  1  0
  4  2  1  0
  5  3  1  0
  8 14  1  0
  9  2  1  0
 10 15  1  0
 10 16  1  0
 11  6  1  0
 11  1  1  0
 12 19  1  0
 12  9  1  0
 13 12  1  0
 14 17  2  0
 15 11  1  0
 16  6  1  0
 17  5  1  0
 18  3  1  0
 18  7  1  0
 20 17  1  0
M  RAD  8   2   2   3   3   4   2   5   3   7   3   8   2  10   2  11   2
M  RAD  7  12   2  13   3  14   2  15   3  16   3  18   2  20   3
M  END
$$$$
/tmp/tmptjplm944
     RDKit          3D

 20 24  0  0  1  0  0  0  0  0999 V2000
  -85.5684   68.4553  105.2506 C   0  0  0  0  0  3  0  0  0  0  0  0
  -91.2103   64.7867  105.6177 C   0  0  0  0  0  3  0  0  0  0  0  0
  -84.3855   67.6869  105.8244 C   0  0  2  0  0  0  0  0  0  0  0  0
  -89.4762   62.7560  102.2247 C   0  0  0  0  0  1  0  0  0  0  0  0
  -88.0371   65.9660  102.8146 C   0  0  0  0  0  3  0  0  0  0  0  0
  -83.8355   66.8080  104.8787 O   0  0  0  0  0  0  0  0  0  0  0  0
  -89.5234   64.6824  103.8146 C   0  0  0  0  0  0  0  0  0  0  0  0
  -83.4052   68.5547  106.3294 O   0  0  0  0  0  0  0  0  0  0  0  0
  -83.2032   68.0493  105.0371 C   0  0  0  0  0  3  0  0  0  0  0  0
  -87.6842   68.5906  106.3328 C   0  0  0  0  0  3  0  0  0  0  0  0
  -88.1957   64.8365  102.0909 N   0  0  0  0  0  0  0  0  0  0  0  0
  -87.7357   67.6724  105.3833 C   0  0  0  0  0  0  0  0  0  0  0  0
  -88.9279   66.8568  105.0540 C   0  0  0  0  0  0  0  0  0  0  0  0
  -91.3263   66.2779  105.5450 C   0  0  0  0  0  2  0  0  0  0  0  0
  -90.0295   66.9798  105.8101 C   0  0  0  0  0  3  0  0  0  0  0  0
  -86.3176   69.1887  106.3673 C   0  0  0  0  0  2  0  0  0  0  0  0
  -89.0804   64.0693  102.7048 N   0  0  0  0  0  0  0  0  0  0  0  0
  -88.8739   65.9002  103.9206 C   0  0  0  0  0  0  0  0  0  0  0  0
  -90.4342   64.0748  104.8003 C   0  0  0  0  0  3  0  0  0  0  0  0
  -86.5268   67.5516  104.7262 O   0  0  0  0  0  0  0  0  0  0  0  0
  1 16  1  0
  2 14  1  0
  3  6  1  0
  3  1  1  1
  3  8  1  0
  4 17  1  0
  5 18  1  0
  7 18  2  0
  7 19  1  0
  9  6  1  0
  9  3  1  0
  9  8  1  0
 10 16  1  0
 11 17  1  0
 11  5  2  0
 12 10  2  0
 13 12  1  0
 13 15  2  0
 15 14  1  0
 17  7  1  0
 18 13  1  0
 19  2  2  0
 20 12  1  0
 20  1  1  0
M  RAD  8   1   2   2   2   4   2   5   2   9   2  10   2  14   3  15   2
M  RAD  2  16   3  19   2
M  END
$$$$
/tmp/tmpqg25hx0x
     RDKit          3D

 20 21  0  0  1  0  0  0  0  0999 V2000
  -83.9046   68.9251  104.0776 C   0  0  0  0  0  2  0  0  0  0  0  0
  -88.4711   63.8343  104.9335 C   0  0  0  0  0  3  0  0  0  0  0  0
  -84.4629   69.4786  106.4681 C   0  0  0  0  0  2  0  0  0  0  0  0
  -92.3363   66.1252  104.0549 C   0  0  0  0  0  2  0  0  0  0  0  0
  -88.1661   62.7257  103.9431 C   0  0  0  0  0  1  0  0  0  0  0  0
  -84.8700   68.8210  105.1971 C   0  0  0  0  0  0  0  0  0  0  0  0
  -88.4570   66.6250  104.3516 C   0  0  0  0  0  2  0  0  0  0  0  0
  -90.9411   66.7147  103.8874 C   0  0  0  0  0  2  0  0  0  0  0  0
  -91.0148   63.6925  104.6637 C   0  0  0  0  0  2  0  0  0  0  0  0
  -86.9935   68.4244  107.2187 N   0  0  0  0  0  2  0  0  0  0  0  0
  -92.5023   64.9397  103.1602 C   0  0  0  0  0  3  0  0  0  0  0  0
  -91.8681   63.8014  103.4385 C   0  0  0  0  0  3  0  0  0  0  0  0
  -87.0895   67.9456  106.0224 C   0  0  0  0  0  0  0  0  0  0  0  0
  -82.8827   69.9745  104.4653 C   0  0  0  0  0  2  0  0  0  0  0  0
  -89.7608   64.5320  104.5849 C   0  0  0  0  0  0  0  0  0  0  0  0
  -82.7340   69.9987  106.2774 S   0  0  0  0  0  0  0  0  0  0  0  0
  -88.2569   67.2000  105.6731 N   0  0  0  0  0  2  0  0  0  0  0  0
  -89.7526   65.8714  104.3185 C   0  0  0  0  0  0  0  0  0  0  0  0
  -88.5342   63.3135  106.2265 O   0  0  0  0  0  1  0  0  0  0  0  0
  -86.0166   68.1556  105.0233 C   0  0  0  0  0  3  0  0  0  0  0  0
  1 14  1  0
  1  6  1  0
  2  5  1  0
  2 19  1  0
  2 15  1  0
  3 16  1  0
  6 20  2  0
  6  3  1  0
  7 17  1  0
  8  4  1  0
  9 12  1  0
 11  4  1  0
 12 11  2  0
 13 10  2  0
 14 16  1  0
 15  9  1  0
 15 18  2  0
 17 13  1  0
 18  7  1  0
 18  8  1  0
 20 13  1  0
M  RAD  8   1   3   2   2   3   3   4   3   5   2   7   3   8   3   9   3
M  RAD  7  10   2  11   2  12   2  14   3  17   2  19   2  20   2
M  END
$$$$
/tmp/tmplt70gxbj
     RDKit          3D

 20 22  0  0  1  0  0  0  0  0999 V2000
  -85.1525   71.3400  106.0537 O   0  0  0  0  0  0  0  0  0  0  0  0
  -86.5173   68.7992  103.7809 C   0  0  0  0  0  3  0  0  0  0  0  0
  -89.6502   63.9701  104.6884 C   0  0  0  0  0  0  0  0  0  0  0  0
  -88.2980   63.5920  104.6305 N   0  0  0  0  0  0  0  0  0  0  0  0
  -91.2915   65.5499  104.8209 C   0  0  0  0  0  3  0  0  0  0  0  0
  -89.8982   69.0004  104.9785 C   0  0  0  0  0  0  0  0  0  0  0  0
  -88.8524   66.2910  104.7986 C   0  0  0  0  0  3  0  0  0  0  0  0
  -86.1132   62.9763  105.1277 O   0  0  0  0  0  1  0  0  0  0  0  0
  -84.2604   69.2334  105.4752 C   0  0  0  0  0  3  0  0  0  0  0  0
  -88.6771   64.9423  104.7189 C   0  0  0  0  0  0  0  0  0  0  0  0
  -89.0605   69.9976  105.0092 C   0  0  0  0  0  3  0  0  0  0  0  0
  -87.2775   62.5733  104.4753 C   0  0  0  0  0  2  0  0  0  0  0  0
  -84.3530   68.1392  104.7200 C   0  0  0  0  0  3  0  0  0  0  0  0
  -86.6016   70.0074  104.6865 C   0  0  0  0  0  3  0  0  0  0  0  0
  -90.7249   67.9889  104.9456 C   0  0  0  0  0  3  0  0  0  0  0  0
  -90.2656   66.5948  104.8544 C   0  0  0  0  0  0  0  0  0  0  0  0
  -85.3167   70.2560  105.4351 C   0  0  0  0  0  0  0  0  0  0  0  0
  -91.0015   64.1431  104.7313 C   0  0  0  0  0  3  0  0  0  0  0  0
  -87.7410   69.8325  105.6814 C   0  0  0  0  0  2  0  0  0  0  0  0
  -85.4978   67.9357  103.8167 C   0  0  0  0  0  3  0  0  0  0  0  0
  2 14  1  0
  3 18  1  0
  4 10  1  0
  4  3  1  0
  6 11  2  0
  6 15  2  0
  7 16  2  0
  8 12  1  0
  9 17  1  0
 10  3  2  0
 10  7  1  0
 11 19  1  0
 12  4  1  0
 13  9  2  0
 14 19  1  0
 14 17  1  0
 16  5  1  0
 16 15  1  0
 17  1  2  0
 18  5  2  0
 20  2  2  0
 20 13  1  0
M  RAD  8   2   2   5   2   7   2   8   2   9   2  11   2  12   3  13   2
M  RAD  5  14   2  15   2  18   2  19   3  20   2
M  END
$$$$
/tmp/tmpti3rqief
     RDKit          3D

 20 21  0  0  1  0  0  0  0  0999 V2000
  -88.4144   63.6936  101.9224 C   0  0  0  0  0  3  0  0  0  0  0  0
  -92.0698   63.2647  105.2835 O   0  0  0  0  0  1  0  0  0  0  0  0
  -87.2347   63.9301  102.5116 C   0  0  0  0  0  3  0  0  0  0  0  0
  -86.4644   69.4765  106.4235 C   0  0  0  0  0  2  0  0  0  0  0  0
  -87.5267   69.5468  105.3337 C   0  0  0  0  0  2  0  0  0  0  0  0
  -90.2357   63.6157  103.7712 C   0  0  0  0  0  0  0  0  0  0  0  0
  -87.7821   67.1494  105.0154 N   0  0  0  0  0  2  0  0  0  0  0  0
  -89.7547   63.4594  102.5220 C   0  0  0  0  0  3  0  0  0  0  0  0
  -91.6726   63.2178  103.9450 C   0  0  0  0  0  2  0  0  0  0  0  0
  -84.6450   70.5334  105.0224 C   0  0  0  0  0  2  0  0  0  0  0  0
  -88.4526   65.8933  105.0279 C   0  0  0  0  0  0  0  0  0  0  0  0
  -88.1070   64.6056  104.6543 C   0  0  0  0  0  0  0  0  0  0  0  0
  -86.9709   63.9570  103.9786 C   0  0  0  0  0  2  0  0  0  0  0  0
  -82.8854   69.3101  103.7855 C   0  0  0  0  0  1  0  0  0  0  0  0
  -89.4606   64.1101  104.9805 C   0  0  0  0  0  3  0  0  0  0  0  0
  -85.4513   70.6144  106.3108 C   0  0  0  0  0  3  0  0  0  0  0  0
  -83.6602   69.3810  105.0841 C   0  0  0  0  0  2  0  0  0  0  0  0
  -89.8343   65.4396  105.3513 C   0  0  0  0  0  2  0  0  0  0  0  0
  -86.0973   71.8490  106.3898 O   0  0  0  0  0  1  0  0  0  0  0  0
  -88.4651   68.3596  105.4384 C   0  0  0  0  0  2  0  0  0  0  0  0
  1  3  2  0
  1  8  1  0
  3 13  1  0
  5 20  1  0
  5  4  1  0
  6 15  1  0
  6  9  1  0
  7 20  1  0
  8  6  2  0
  9  2  1  0
 10 16  1  0
 11  7  1  0
 11 18  1  0
 12 15  1  0
 12 11  2  0
 13 12  1  0
 14 17  1  0
 15 18  1  0
 16 19  1  0
 16  4  1  0
 17 10  1  0
M  RAD  8   1   2   2   2   3   2   4   3   5   3   7   2   8   2   9   3
M  RAD  8  10   3  13   3  14   2  15   2  16   2  17   3  18   3  19   2
M  RAD  1  20   3
M  END
$$$$
/tmp/tmph0gxa29n
     RDKit          3D

 20 22  0  0  0  0  0  0  0  0999 V2000
  -86.4923   70.1414  106.4686 O   0  0  0  0  0  1  0  0  0  0  0  0
  -89.5777   62.0839  103.7924 C   0  0  0  0  0  3  0  0  0  0  0  0
  -84.2879   69.1730  106.4370 C   0  0  0  0  0  3  0  0  0  0  0  0
  -83.5025   67.9814  104.4817 C   0  0  0  0  0  3  0  0  0  0  0  0
  -88.0676   68.3394  104.3491 N   0  0  0  0  0  2  0  0  0  0  0  0
  -87.5173   64.9814  102.7925 C   0  0  0  0  0  3  0  0  0  0  0  0
  -90.4157   62.6657  104.7473 C   0  0  0  0  0  3  0  0  0  0  0  0
  -88.2082   66.9450  104.0485 C   0  0  0  0  0  0  0  0  0  0  0  0
  -87.0235   69.1915  103.7930 C   0  0  0  0  0  2  0  0  0  0  0  0
  -88.4822   64.2156  103.4455 C   0  0  0  0  0  0  0  0  0  0  0  0
  -89.3273   64.8126  104.4119 C   0  0  0  0  0  0  0  0  0  0  0  0
  -90.2916   64.0232  105.0559 C   0  0  0  0  0  3  0  0  0  0  0  0
  -89.1879   66.1824  104.7106 C   0  0  0  0  0  0  0  0  0  0  0  0
  -85.5073   69.4238  105.7999 C   0  0  0  0  0  0  0  0  0  0  0  0
  -85.7258   68.9504  104.4945 C   0  0  0  0  0  0  0  0  0  0  0  0
  -84.7197   68.2297  103.8414 C   0  0  0  0  0  3  0  0  0  0  0  0
  -90.2268   66.9525  105.9128 Cl  0  0  0  0  0  0  0  0  0  0  0  0
  -83.2867   68.4529  105.7793 C   0  0  0  0  0  3  0  0  0  0  0  0
  -87.3825   66.3369  103.0917 C   0  0  0  0  0  3  0  0  0  0  0  0
  -88.6125   62.8574  103.1423 C   0  0  0  0  0  3  0  0  0  0  0  0
  2 20  2  0
  2  7  1  0
  4 18  2  0
  6 19  1  0
  7 12  2  0
  8 13  1  0
  8  5  1  0
  9 15  1  0
  9  5  1  0
 10  6  2  0
 10 11  1  0
 11 12  1  0
 11 13  2  0
 13 17  1  0
 14  1  1  0
 14  3  2  0
 15 14  1  0
 16  4  1  0
 16 15  2  0
 18  3  1  0
 19  8  2  0
 20 10  1  0
M  RAD  8   1   2   2   2   3   2   4   2   5   2   6   2   7   2   9   3
M  RAD  5  12   2  16   2  18   2  19   2  20   2
M  END
$$$$
/tmp/tmpfygwpgje
     RDKit          3D

 20 21  0  0  1  0  0  0  0  0999 V2000
  -87.2206   68.7178  104.6755 C   0  0  0  0  0  3  0  0  0  0  0  0
  -86.0431   69.2514  103.8935 C   0  0  0  0  0  3  0  0  0  0  0  0
  -87.8101   64.7533  106.6446 C   0  0  0  0  0  2  0  0  0  0  0  0
  -86.8623   68.0259  106.0111 C   0  0  0  0  0  2  0  0  0  0  0  0
  -87.9301   62.2089  105.5660 N   0  0  0  0  0  2  0  0  0  0  0  0
  -89.7474   64.2089  103.0108 C   0  0  0  0  0  3  0  0  0  0  0  0
  -89.5293   65.5266  103.4215 O   0  0  0  0  0  0  0  0  0  0  0  0
  -91.1591   64.0805  102.4655 C   0  0  0  0  0  2  0  0  0  0  0  0
  -84.9848   69.7503  106.0483 C   0  0  0  0  0  2  0  0  0  0  0  0
  -88.0934   63.1651  104.5654 C   0  0  0  0  0  3  0  0  0  0  0  0
  -87.5115   66.8002  103.4631 C   0  0  0  0  0  2  0  0  0  0  0  0
  -87.9063   63.7177  105.8241 C   0  0  0  0  0  0  0  0  0  0  0  0
  -85.4791   68.3986  106.5766 C   0  0  1  0  0  0  0  0  0  0  0  0
  -89.5611   63.2621  104.1884 C   0  0  0  0  0  2  0  0  0  0  0  0
  -85.5601   68.4576  107.9672 O   0  0  0  0  0  1  0  0  0  0  0  0
  -91.3133   62.8481  101.8300 O   0  0  0  0  0  1  0  0  0  0  0  0
  -88.4756   65.9825  102.6243 C   0  0  0  0  0  2  0  0  0  0  0  0
  -84.5728   67.4137  106.2253 F   0  0  0  0  0  0  0  0  0  0  0  0
  -88.1352   67.9860  103.8891 O   0  0  0  0  0  0  0  0  0  0  0  0
  -84.9888   69.7487  104.5466 C   0  0  0  0  0  3  0  0  0  0  0  0
  1 19  1  0
  1  2  1  0
  2 20  2  0
  4  1  1  0
  5 12  1  0
  6  8  1  0
  6  7  1  0
  7 17  1  0
  9 20  1  0
 10 14  1  0
 10  5  1  0
 10 12  1  0
 11 17  1  0
 11 19  1  0
 12  3  2  0
 13 18  1  0
 13  4  1  0
 13  9  1  0
 13 15  1  1
 14  6  1  0
 16  8  1  0
M  RAD  8   1   2   2   2   3   3   4   3   5   2   6   2   8   3   9   3
M  RAD  7  10   2  11   3  14   3  15   2  16   2  17   3  20   2
M  END
$$$$

     RDKit          3D

 12 13  0  0  0  0  0  0  0  0999 V2000
  -85.4217   68.9106  105.9610 C   0  0  0  0  0  0  0  0  0  0  0  0
  -84.6616   69.7611  106.7577 C   0  0  0  0  0  3  0  0  0  0  0  0
  -85.2603   67.5845  105.4755 C   0  0  0  0  0  3  0  0  0  0  0  0
  -88.5454   68.9348  103.9514 C   0  0  0  0  0  3  0  0  0  0  0  0
  -87.8975   71.1584  105.1568 C   0  0  0  0  0  3  0  0  0  0  0  0
  -83.9315   67.6686  105.5804 C   0  0  0  0  0  3  0  0  0  0  0  0
  -82.3264   69.3830  106.1958 O   0  0  0  0  0  0  0  0  0  0  0  0
  -85.8547   70.2438  106.1811 C   0  0  0  0  0  0  0  0  0  0  0  0
  -86.7543   71.2863  105.9549 O   0  0  0  0  0  0  0  0  0  0  0  0
  -83.5231   68.9957  106.1465 C   0  0  0  0  0  0  0  0  0  0  0  0
  -88.6767   67.7620  104.6821 O   0  0  0  0  0  1  0  0  0  0  0  0
  -88.2219   70.0441  104.5528 C   0  0  0  0  0  0  0  0  0  0  0  0
  1  8  2  3
  2 10  1  0
  2  1  1  0
  2  8  1  0
  3  1  1  0
  4 12  2  0
  5  9  1  0
  6 10  1  0
  6  3  2  0
  7 10  2  0
  8  9  1  0
 11  4  1  0
 12  5  2  0
M  RAD  6   2   2   3   2   4   2   5   2   6   2  11   2
M  END
$$$$
/tmp/tmp1ut3bhx8
     RDKit          3D

 20 22  0  0  0  0  0  0  0  0999 V2000
  -91.4028   64.7046  105.5411 C   0  0  0  0  0  0  0  0  0  0  0  0
  -88.5220   61.9951  104.4992 O   0  0  0  0  0  0  0  0  0  0  0  0
  -86.1128   69.7982  105.4275 N   0  0  0  0  0  0  0  0  0  0  0  0
  -88.8592   67.1942  104.2325 C   0  0  0  0  0  3  0  0  0  0  0  0
  -85.1020   69.6927  106.3320 C   0  0  0  0  0  3  0  0  0  0  0  0
  -92.3093   66.9364  105.7613 C   0  0  0  0  0  3  0  0  0  0  0  0
  -84.2012   68.6280  106.2545 C   0  0  0  0  0  3  0  0  0  0  0  0
  -90.2189   65.2280  104.9817 C   0  0  0  0  0  0  0  0  0  0  0  0
  -84.3534   67.6789  105.2421 C   0  0  0  0  0  3  0  0  0  0  0  0
  -92.4385   65.5580  105.9266 C   0  0  0  0  0  3  0  0  0  0  0  0
  -87.4086   69.0237  103.4696 C   0  0  0  0  0  2  0  0  0  0  0  0
  -86.2750   68.8862  104.4299 C   0  0  0  0  0  0  0  0  0  0  0  0
  -90.6278   62.4265  105.3839 N   0  0  0  0  0  0  0  0  0  0  0  0
  -91.5627   63.2576  105.7259 C   0  0  0  0  0  3  0  0  0  0  0  0
  -90.0898   66.6239  104.8147 C   0  0  0  0  0  0  0  0  0  0  0  0
  -89.0965   64.3072  104.5648 C   0  0  0  0  0  2  0  0  0  0  0  0
  -85.3966   67.8038  104.3229 C   0  0  0  0  0  3  0  0  0  0  0  0
  -89.3879   62.8536  104.8085 C   0  0  0  0  0  0  0  0  0  0  0  0
  -91.1425   67.4658  105.2091 C   0  0  0  0  0  3  0  0  0  0  0  0
  -88.6756   68.5005  104.0603 C   0  0  0  0  0  3  0  0  0  0  0  0
  1 10  2  0
  2 18  2  0
  4 20  2  0
  5  3  2  0
  6 19  2  0
  7  5  1  0
  8  1  1  0
  8 15  2  0
  9  7  2  0
  9 17  1  0
 10  6  1  0
 12  3  1  0
 12 11  1  0
 13 14  2  0
 14  1  1  0
 15  4  1  0
 15 19  1  0
 16  8  1  0
 17 12  2  0
 18 13  1  0
 18 16  1  0
 20 11  1  0
M  RAD  8   4   2   5   2   6   2   7   2   9   2  10   2  11   3  14   2
M  RAD  4  16   3  17   2  19   2  20   2
M  END
$$$$
/tmp/tmprpeyj9uz
     RDKit          3D

 20 23  0  0  1  0  0  0  0  0999 V2000
  -91.9731   64.1293  105.3806 O   0  0  0  0  0  1  0  0  0  0  0  0
  -88.8010   63.3332  103.7148 C   0  0  0  0  0  3  0  0  0  0  0  0
  -87.7286   66.6633  104.9380 N   0  0  0  0  0  2  0  0  0  0  0  0
  -88.0561   64.5102  104.0580 N   0  0  0  0  0  0  0  0  0  0  0  0
  -85.6589   71.2108  106.4355 C   0  0  0  0  0  3  0  0  0  0  0  0
  -85.2655   68.0846  104.9241 N   0  0  0  0  0  0  0  0  0  0  0  0
  -90.0970   63.2387  103.9977 C   0  0  0  0  0  0  0  0  0  0  0  0
  -90.0276   65.5891  105.0722 C   0  0  0  0  0  3  0  0  0  0  0  0
  -87.9207   70.0004  106.4908 C   0  0  0  0  0  3  0  0  0  0  0  0
  -87.3919   68.9349  105.8710 C   0  0  0  0  0  0  0  0  0  0  0  0
  -85.1740   70.1361  105.8232 C   0  0  0  0  0  0  0  0  0  0  0  0
  -88.5711   65.5465  104.6575 C   0  0  0  0  0  0  0  0  0  0  0  0
  -90.8522   65.5408  103.9220 O   0  0  0  0  0  0  0  0  0  0  0  0
  -90.7833   64.3699  104.6944 C   0  0  2  0  0  0  0  0  0  0  0  0
  -90.8051   62.0990  103.6399 O   0  0  0  0  0  1  0  0  0  0  0  0
  -85.9657   68.9890  105.5170 C   0  0  0  0  0  0  0  0  0  0  0  0
  -88.2205   67.8061  105.5826 N   0  0  0  0  0  2  0  0  0  0  0  0
  -87.1210   71.2515  106.8419 C   0  0  0  0  0  2  0  0  0  0  0  0
  -83.8385   69.8496  105.3397 C   0  0  0  0  0  3  0  0  0  0  0  0
  -83.9380   68.6229  104.8140 C   0  0  0  0  0  3  0  0  0  0  0  0
  2  4  1  0
  2  7  2  0
  3 17  1  0
  4 12  2  0
  5 18  1  0
  6 20  1  0
  6 16  2  0
  7 14  1  0
  8 12  1  0
  8 13  1  0
  9 18  1  0
 10  9  2  0
 11  5  2  0
 12  3  1  0
 14  8  1  0
 14 13  1  0
 14  1  1  1
 15  7  1  0
 16 10  1  0
 16 11  1  0
 17 10  1  0
 19 11  1  0
 20 19  2  0
M  RAD  8   1   2   2   2   3   2   5   2   8   2   9   2  15   2  17   2
M  RAD  3  18   3  19   2  20   2
M  END
$$$$
/tmp/tmp1pdt1tv9
     RDKit          3D

 20 22  0  0  0  0  0  0  0  0999 V2000
  -89.9628   65.8947  104.8787 C   0  0  0  0  0  0  0  0  0  0  0  0
  -94.0221   66.6095  105.4000 C   0  0  0  0  0  1  0  0  0  0  0  0
  -90.3478   67.0644  105.4244 C   0  0  0  0  0  0  0  0  0  0  0  0
  -83.7601   70.1746  103.7923 O   0  0  0  0  0  1  0  0  0  0  0  0
  -85.6112   69.5469  105.0720 C   0  0  0  0  0  3  0  0  0  0  0  0
  -92.0612   68.4361  106.1262 O   0  0  0  0  0  0  0  0  0  0  0  0
  -92.5950   66.3867  105.2295 N   0  0  0  0  0  0  0  0  0  0  0  0
  -86.3745   68.6671  106.0057 C   0  0  0  0  0  2  0  0  0  0  0  0
  -85.7877   66.4916  104.9976 C   0  0  0  0  0  3  0  0  0  0  0  0
  -91.6910   67.3438  105.6162 C   0  0  0  0  0  0  0  0  0  0  0  0
  -86.7332   67.3597  105.3736 C   0  0  0  0  0  0  0  0  0  0  0  0
  -83.7428   67.9377  104.8076 C   0  0  0  0  0  3  0  0  0  0  0  0
  -88.5508   65.8417  104.7844 N   0  0  0  0  0  0  0  0  0  0  0  0
  -90.5663   63.8548  103.9889 O   0  0  0  0  0  0  0  0  0  0  0  0
  -92.1974   65.2426  104.6945 O   0  0  0  0  0  0  0  0  0  0  0  0
  -88.1547   66.9836  105.2801 C   0  0  0  0  0  0  0  0  0  0  0  0
  -84.3347   66.7514  104.9940 C   0  0  0  0  0  3  0  0  0  0  0  0
  -89.2132   67.8567  105.7249 N   0  0  0  0  0  2  0  0  0  0  0  0
  -84.4181   69.2295  104.5670 C   0  0  0  0  0  0  0  0  0  0  0  0
  -90.9076   64.9528  104.5006 C   0  0  0  0  0  0  0  0  0  0  0  0
  1 20  1  0
  1  3  2  0
  2  7  1  0
  3 10  1  0
  3 18  1  0
  5  8  1  0
  6 10  2  0
  7 15  1  0
  9 11  2  0
 10  7  1  0
 11 16  1  0
 11  8  1  0
 12 19  1  0
 13  1  1  0
 13 16  2  0
 14 20  2  0
 16 18  1  0
 17  9  1  0
 17 12  2  0
 19  4  1  0
 19  5  2  0
 20 15  1  0
M  RAD  8   2   2   4   2   5   2   8   3   9   2  12   2  17   2  18   2
M  END
$$$$
/tmp/tmpqndd6yaf
     RDKit          3D

 20 22  0  0  1  0  0  0  0  0999 V2000
  -88.2452   69.3767  104.6935 C   0  0  0  0  0  3  0  0  0  0  0  0
  -87.6016   67.2417  103.4770 C   0  0  0  0  0  0  0  0  0  0  0  0
  -91.6641   64.2814  104.8954 C   0  0  0  0  0  3  0  0  0  0  0  0
  -85.2539   67.3109  104.6129 C   0  0  0  0  0  3  0  0  0  0  0  0
  -89.4280   65.4924  105.1567 C   0  0  0  0  0  0  0  0  0  0  0  0
  -89.4378   66.3027  106.2020 C   0  0  0  0  0  3  0  0  0  0  0  0
  -88.2938   68.5864  103.4032 C   0  0  0  0  0  2  0  0  0  0  0  0
  -90.3886   64.4939  104.6263 C   0  0  0  0  0  0  0  0  0  0  0  0
  -92.4333   65.2849  105.7070 C   0  0  0  0  0  3  0  0  0  0  0  0
  -85.9036   69.4359  105.8323 C   0  0  0  0  0  3  0  0  0  0  0  0
  -89.3833   63.9350  103.7265 N   0  0  0  0  0  2  0  0  0  0  0  0
  -87.1049   69.5076  105.3201 C   0  0  0  0  0  0  0  0  0  0  0  0
  -94.1982   64.5970  106.0907 Br  0  0  0  0  0  0  0  0  0  0  0  0
  -91.8033   65.8110  106.9770 C   0  0  0  0  0  3  0  0  0  0  0  0
  -88.5293   64.9972  104.1505 C   0  0  0  0  0  3  0  0  0  0  0  0
  -90.5650   66.3044  107.1569 C   0  0  0  0  0  3  0  0  0  0  0  0
  -87.4651   65.2624  101.6428 Cl  0  0  0  0  0  0  0  0  0  0  0  0
  -85.2181   68.0890  105.9102 C   0  0  0  0  0  2  0  0  0  0  0  0
  -88.3278   66.0129  103.0152 C   0  0  0  0  0  3  0  0  0  0  0  0
  -86.3940   67.1766  103.9869 C   0  0  0  0  0  0  0  0  0  0  0  0
  1 12  2  0
  2 20  2  0
  2  7  1  0
  3  9  1  0
  4 18  1  0
  5  6  2  0
  6 16  1  0
  7  1  1  0
  8  3  2  0
  8  5  1  0
  9 13  1  0
  9 14  1  0
 10 12  2  0
 11 15  1  0
 11  8  1  0
 14 16  2  0
 15 19  1  0
 15  5  1  0
 18 10  1  0
 19 17  1  0
 19  2  1  0
 20  4  2  0
M  RAD  8   1   2   3   2   4   2   6   2   7   3   9   2  10   2  11   2
M  RAD  5  14   2  15   2  16   2  18   3  19   2
M  END
$$$$

     RDKit          3D

 10 11  0  0  0  0  0  0  0  0999 V2000
  -87.7155   65.8210  104.8177 C   0  0  0  0  0  2  0  0  0  0  0  0
  -87.9459   62.7258  103.1604 C   0  0  0  0  0  3  0  0  0  0  0  0
  -87.9509   65.5107  102.2999 C   0  0  0  0  0  2  0  0  0  0  0  0
  -89.9695   65.4257  105.4554 F   0  0  0  0  0  0  0  0  0  0  0  0
  -86.3421   62.2486  101.3380 O   0  0  0  0  0  1  0  0  0  0  0  0
  -87.1168   63.1751  102.0219 C   0  0  0  0  0  0  0  0  0  0  0  0
  -88.3880   65.0702  103.6945 C   0  0  1  0  0  0  0  0  0  0  0  0
  -88.5649   63.6035  103.9521 C   0  0  0  0  0  3  0  0  0  0  0  0
  -89.1889   66.0681  104.5099 C   0  0  0  0  0  3  0  0  0  0  0  0
  -87.0875   64.4614  101.6481 C   0  0  0  0  0  3  0  0  0  0  0  0
  2  8  2  0
  5  6  1  0
  6  2  1  0
  7  3  1  6
  7  8  1  0
  7  9  1  0
  7  1  1  0
  9  1  1  0
  9  4  1  0
 10  6  2  0
 10  3  1  0
M  RAD  7   1   3   2   2   3   3   5   2   8   2   9   2  10   2
M  END
$$$$
/tmp/tmp7znid5v5
     RDKit          3D

 20 23  0  0  1  0  0  0  0  0999 V2000
  -85.5892   66.8117  105.6483 C   0  0  0  0  0  3  0  0  0  0  0  0
  -88.6409   67.0055  105.3831 C   0  0  0  0  0  3  0  0  0  0  0  0
  -93.0111   63.6178  106.1507 C   0  0  0  0  0  2  0  0  0  0  0  0
  -84.0140   68.2281  104.9468 C   0  0  0  0  0  0  0  0  0  0  0  0
  -88.3816   65.6031  104.9000 C   0  0  0  0  0  3  0  0  0  0  0  0
  -86.2435   67.8288  105.0610 C   0  0  0  0  0  0  0  0  0  0  0  0
  -85.0727   69.9882  104.1817 C   0  0  0  0  0  0  0  0  0  0  0  0
  -84.1200   67.0863  105.6064 C   0  0  0  0  0  3  0  0  0  0  0  0
  -83.0234   69.2531  104.6684 C   0  0  0  0  0  3  0  0  0  0  0  0
  -87.6530   67.9233  104.8305 N   0  0  0  0  0  2  0  0  0  0  0  0
  -92.6780   65.0850  106.3740 C   0  0  0  0  0  3  0  0  0  0  0  0
  -85.2486   68.7536  104.5969 C   0  0  0  0  0  0  0  0  0  0  0  0
  -89.0793   64.5445  105.3275 C   0  0  0  0  0  3  0  0  0  0  0  0
  -91.1163   66.9453  105.8853 C   0  0  0  0  0  2  0  0  0  0  0  0
  -90.0294   67.4695  104.9521 C   0  0  0  0  0  2  0  0  0  0  0  0
  -90.2033   64.6566  106.3131 C   0  0  0  0  0  2  0  0  0  0  0  0
  -86.1460   71.0021  103.9920 C   0  0  0  0  0  1  0  0  0  0  0  0
  -93.6722   64.6785  105.2987 C   0  0  0  0  0  2  0  0  0  0  0  0
  -83.6646   70.2959  104.2081 N   0  0  0  0  0  0  0  0  0  0  0  0
  -91.3589   65.4502  105.7065 C   0  0  0  0  0  3  0  0  0  0  0  0
  1  8  1  0
  2 10  1  0
  2 15  1  0
  4  8  2  0
  4  9  1  0
  5  2  1  0
  6 12  1  0
  6  1  2  0
  7 12  2  0
  7 19  1  0
 10  6  1  0
 11 18  1  0
 11  3  1  0
 12  4  1  0
 13 16  1  0
 13  5  2  0
 14 15  1  0
 16 20  1  0
 17  7  1  0
 18  3  1  0
 19  9  2  0
 20 11  1  0
 20 14  1  0
M  RAD  8   1   2   2   2   3   3   5   2   8   2   9   2  10   2  11   2
M  RAD  7  13   2  14   3  15   3  16   3  17   2  18   3  20   2
M  END
$$$$
/tmp/tmp1ms6bn0l
     RDKit          3D

 20 21  0  0  1  0  0  0  0  0999 V2000
  -86.2991   68.5658  104.9232 C   0  0  0  0  0  3  0  0  0  0  0  0
  -87.0048   63.4589  104.0861 C   0  0  0  0  0  3  0  0  0  0  0  0
  -92.1739   62.7186  104.1781 C   0  0  0  0  0  1  0  0  0  0  0  0
  -87.4301   62.1994  103.9825 C   0  0  0  0  0  3  0  0  0  0  0  0
  -87.3001   65.7399  104.8205 C   0  0  0  0  0  3  0  0  0  0  0  0
  -89.8633   62.0612  103.6013 C   0  0  0  0  0  0  0  0  0  0  0  0
  -86.4084   68.5087  103.1456 Cl  0  0  0  0  0  0  0  0  0  0  0  0
  -88.0321   66.7350  105.4605 O   0  0  0  0  0  0  0  0  0  0  0  0
  -87.2171   71.1233  107.1486 C   0  0  0  0  0  3  0  0  0  0  0  0
  -85.4037   70.8277  105.9950 C   0  0  0  0  0  0  0  0  0  0  0  0
  -88.7398   61.7160  104.5258 C   0  0  0  0  0  2  0  0  0  0  0  0
  -86.3933   69.9804  105.3685 C   0  0  0  0  0  0  0  0  0  0  0  0
  -88.2253   68.9500  106.2129 N   0  0  0  0  0  0  0  0  0  0  0  0
  -87.5759   68.0513  105.5425 C   0  0  0  0  0  0  0  0  0  0  0  0
  -87.7735   64.5060  104.7599 C   0  0  0  0  0  3  0  0  0  0  0  0
  -87.4722   70.1436  106.0868 C   0  0  0  0  0  0  0  0  0  0  0  0
  -90.0255   61.4215  102.5738 O   0  0  0  0  0  0  0  0  0  0  0  0
  -85.9897   71.5413  107.0780 N   0  0  0  0  0  0  0  0  0  0  0  0
  -84.1854   70.8911  105.6855 O   0  0  0  0  0  0  0  0  0  0  0  0
  -90.7629   63.2103  103.9189 C   0  0  0  0  0  2  0  0  0  0  0  0
  1  7  1  0
  1 14  1  0
  1 12  1  0
  2  4  2  0
  2 15  1  0
  4 11  1  0
  5  8  1  0
  6 11  1  0
  6 20  1  0
  8 14  1  0
 10 18  1  0
 12 16  2  0
 12 10  1  0
 13 16  1  0
 14 13  2  0
 15  5  2  0
 16  9  1  0
 17  6  2  0
 18  9  2  0
 19 10  2  0
 20  3  1  0
M  RAD  8   1   2   2   2   3   2   4   2   5   2   9   2  11   3  15   2
M  RAD  1  20   3
M  END
$$$$

     RDKit          3D

 13 14  0  0  0  0  0  0  0  0999 V2000
  -91.0607   66.9689  105.3597 C   0  0  0  0  0  0  0  0  0  0  0  0
  -91.0092   63.5434  103.8975 C   0  0  0  0  0  3  0  0  0  0  0  0
  -89.3257   66.8544  105.7396 S   0  0  0  0  0  0  0  0  0  0  0  0
  -91.7535   67.9801  105.6424 O   0  0  0  0  0  0  0  0  0  0  0  0
  -92.1394   62.7495  104.5257 C   0  0  0  0  0  1  0  0  0  0  0  0
  -88.5583   63.4639  103.5953 N   0  0  0  0  0  0  0  0  0  0  0  0
  -87.6301   63.0939  102.5405 C   0  0  0  0  0  1  0  0  0  0  0  0
  -88.3217   64.6081  104.4287 C   0  0  0  0  0  0  0  0  0  0  0  0
  -87.2010   65.1863  104.4224 O   0  0  0  0  0  0  0  0  0  0  0  0
  -91.6117   65.8040  104.7049 C   0  0  0  0  0  3  0  0  0  0  0  0
  -89.7594   62.6588  103.8084 C   0  0  0  0  0  2  0  0  0  0  0  0
  -90.7452   64.8052  104.6787 C   0  0  0  0  0  0  0  0  0  0  0  0
  -89.4201   65.0665  105.3432 C   0  0  0  0  0  3  0  0  0  0  0  0
  1  4  2  0
  2  5  1  0
  2 12  1  0
  3  1  1  0
  6  8  1  0
  6 11  1  0
  7  6  1  0
  9  8  2  0
 10  1  1  0
 11  2  1  0
 12 10  2  0
 13  8  1  0
 13 12  1  0
 13  3  1  0
M  RAD  6   2   2   5   2   7   2  10   2  11   3  13   2
M  END
$$$$
/tmp/tmpx5dval3r
     RDKit          3D

 20 20  0  0  0  0  0  0  0  0999 V2000
  -90.8016   65.4524  106.5840 C   0  0  0  0  0  3  0  0  0  0  0  0
  -89.4195   61.9277  100.8332 C   0  0  0  0  0  1  0  0  0  0  0  0
  -88.0321   62.0966  103.1818 S   0  0  0  0  0  1  0  0  0  0  0  0
  -88.2234   68.2159  106.6060 C   0  0  0  0  0  2  0  0  0  0  0  0
  -90.5271   68.1892  107.1970 O   0  0  0  0  0  0  0  0  0  0  0  0
  -90.8838   62.3368  104.4097 C   0  0  0  0  0  2  0  0  0  0  0  0
  -90.7872   62.1362  102.9329 C   0  0  0  0  0  0  0  0  0  0  0  0
  -91.8778   62.1125  102.2378 N   0  0  0  0  0  2  0  0  0  0  0  0
  -89.6527   66.1081  106.4579 C   0  0  0  0  0  3  0  0  0  0  0  0
  -89.5322   67.5323  106.7875 C   0  0  0  0  0  0  0  0  0  0  0  0
  -83.3330   69.5773  104.1506 C   0  0  0  0  0  1  0  0  0  0  0  0
  -84.7385   69.8071  104.5758 C   0  0  0  0  0  0  0  0  0  0  0  0
  -85.7370   68.8603  104.5741 C   0  0  0  0  0  3  0  0  0  0  0  0
  -85.2492   71.0040  105.0419 C   0  0  0  0  0  3  0  0  0  0  0  0
  -90.8324   63.8164  104.7352 C   0  0  0  0  0  2  0  0  0  0  0  0
  -86.8523   69.4575  105.0234 N   0  0  0  0  0  0  0  0  0  0  0  0
  -90.8948   64.0060  106.2389 C   0  0  0  0  0  2  0  0  0  0  0  0
  -88.1373   68.8063  105.2091 C   0  0  0  0  0  2  0  0  0  0  0  0
  -89.5091   62.0602  102.2787 N   0  0  0  0  0  0  0  0  0  0  0  0
  -86.5810   70.7431  105.3164 C   0  0  0  0  0  3  0  0  0  0  0  0
  1  9  2  0
  2 19  1  0
  6 15  1  0
  7  6  1  0
  8  7  2  0
  9 10  1  0
 10  4  1  0
 10  5  2  0
 11 12  1  0
 12 14  1  0
 13 12  2  0
 13 16  1  0
 14 20  2  0
 15 17  1  0
 16 18  1  0
 16 20  1  0
 17  1  1  0
 18  4  1  0
 19  3  1  0
 19  7  1  0
M  RAD  8   1   2   2   2   3   2   4   3   6   3   8   2   9   2  11   2
M  RAD  6  13   2  14   2  15   3  17   3  18   3  20   2
M  END
$$$$
/tmp/tmpapvd7fv0
     RDKit          3D

 20 21  0  0  0  0  0  0  0  0999 V2000
  -88.2169   69.0892  105.2036 N   0  0  0  0  0  2  0  0  0  0  0  0
  -83.3335   68.2241  105.5203 C   0  0  0  0  0  3  0  0  0  0  0  0
  -90.0970   64.9955  104.9944 C   0  0  0  0  0  3  0  0  0  0  0  0
  -84.0251   67.5238  104.5271 C   0  0  0  0  0  3  0  0  0  0  0  0
  -88.2258   67.3486  103.0114 O   0  0  0  0  0  1  0  0  0  0  0  0
  -91.0138   65.8692  105.7761 C   0  0  0  0  0  2  0  0  0  0  0  0
  -85.1640   69.8015  105.6836 C   0  0  0  0  0  3  0  0  0  0  0  0
  -88.3780   63.1234  103.4417 C   0  0  0  0  0  0  0  0  0  0  0  0
  -87.2097   69.5601  104.2601 C   0  0  0  0  0  2  0  0  0  0  0  0
  -83.9031   69.3625  106.0989 C   0  0  0  0  0  3  0  0  0  0  0  0
  -85.8552   69.1049  104.6857 C   0  0  0  0  0  0  0  0  0  0  0  0
  -87.6198   62.4785  102.6727 O   0  0  0  0  0  0  0  0  0  0  0  0
  -85.2858   67.9629  104.1115 C   0  0  0  0  0  3  0  0  0  0  0  0
  -89.0424   65.4520  104.3085 C   0  0  0  0  0  0  0  0  0  0  0  0
  -89.3161   62.4377  104.2041 O   0  0  0  0  0  1  0  0  0  0  0  0
  -88.7351   67.7517  105.2984 C   0  0  0  0  0  0  0  0  0  0  0  0
  -88.6844   66.8933  104.2435 C   0  0  0  0  0  0  0  0  0  0  0  0
  -89.2616   67.3863  106.6321 C   0  0  0  0  0  3  0  0  0  0  0  0
  -90.2596   66.5375  106.8701 C   0  0  0  0  0  3  0  0  0  0  0  0
  -88.2502   64.5491  103.5204 N   0  0  0  0  0  2  0  0  0  0  0  0
  2  4  2  0
  2 10  1  0
  3  6  1  0
  4 13  1  0
  5 17  1  0
  6 19  1  0
  7 11  1  0
  8 15  1  0
  8 20  1  0
  9  1  1  0
 10  7  2  0
 11  9  1  0
 12  8  2  0
 13 11  2  0
 14  3  2  0
 14 17  1  0
 16 18  1  0
 16  1  1  0
 17 16  2  0
 19 18  2  0
 20 14  1  0
M  RAD  8   1   2   2   2   3   2   4   2   5   2   6   3   7   2   9   3
M  RAD  6  10   2  13   2  15   2  18   2  19   2  20   2
M  END
$$$$
/tmp/tmpp24nqh88
     RDKit          3D

 20 19  0  0  1  0  0  0  0  0999 V2000
  -88.5573   68.7239  105.6773 O   0  0  0  0  0  0  0  0  0  0  0  0
  -89.8838   61.6011   99.6568 C   0  0  0  0  0  1  0  0  0  0  0  0
  -90.3273   62.9897  103.1768 C   0  0  0  0  0  2  0  0  0  0  0  0
  -89.6529   62.7575  101.8296 C   0  0  0  0  0  2  0  0  0  0  0  0
  -84.1340   70.6469  107.0918 C   0  0  0  0  0  1  0  0  0  0  0  0
  -83.4958   68.7327  105.5805 O   0  0  0  0  0  0  0  0  0  0  0  0
  -87.7694   67.9572  105.0588 C   0  0  0  0  0  0  0  0  0  0  0  0
  -89.9597   65.4761  103.1910 C   0  0  0  0  0  2  0  0  0  0  0  0
  -89.7142   64.1655  103.9294 C   0  0  0  0  0  3  0  0  0  0  0  0
  -89.7145   66.6711  104.0973 C   0  0  0  0  0  2  0  0  0  0  0  0
  -86.3161   68.1432  105.1746 C   0  0  0  0  0  0  0  0  0  0  0  0
  -88.2863   66.9038  104.2435 N   0  0  0  0  0  2  0  0  0  0  0  0
  -85.5420   67.3675  104.5512 O   0  0  0  0  0  0  0  0  0  0  0  0
  -84.4876   69.5011  106.2017 C   0  0  0  0  0  0  0  0  0  0  0  0
  -88.3466   63.9573  104.1246 O   0  0  0  0  0  1  0  0  0  0  0  0
  -82.1585   68.9798  105.7478 C   0  0  0  0  0  0  0  0  0  0  0  0
  -89.8189   60.2750  101.7385 C   0  0  0  0  0  1  0  0  0  0  0  0
  -80.9814   69.1958  105.8938 C   0  0  0  0  0  3  0  0  0  0  0  0
  -85.7810   69.2316  106.0162 C   0  0  0  0  0  3  0  0  0  0  0  0
  -90.2865   61.5771  101.1160 C   0  0  0  0  0  3  0  0  0  0  0  0
  2 20  1  0
  3  9  1  0
  4  3  1  0
  6 16  1  0
  6 14  1  0
  7 12  1  0
  7  1  2  0
  8 10  1  0
  9 15  1  0
  9  8  1  0
 11  7  1  0
 11 19  1  0
 12 10  1  0
 13 11  2  0
 14 19  2  0
 14  5  1  0
 16 18  3  0
 17 20  1  0
 20  4  1  0
M  RAD  8   2   2   3   3   4   3   5   2   8   3   9   2  10   3  12   2
M  RAD  5  15   2  17   2  18   2  19   2  20   2
M  END
$$$$
/tmp/tmpnohk4r93
     RDKit          3D

 20 21  0  0  0  0  0  0  0  0999 V2000
  -88.7190   63.6084  102.0935 C   0  0  0  0  0  3  0  0  0  0  0  0
  -88.5505   64.8836  102.6392 C   0  0  0  0  0  3  0  0  0  0  0  0
  -87.9317   68.6459  104.7073 N   0  0  0  0  0  0  0  0  0  0  0  0
  -88.2465   65.0359  104.0014 C   0  0  0  0  0  0  0  0  0  0  0  0
  -86.5736   69.0955  104.8992 C   0  0  0  0  0  0  0  0  0  0  0  0
  -84.1876   68.7426  104.4087 C   0  0  0  0  0  3  0  0  0  0  0  0
  -83.8475   69.7941  105.3741 C   0  0  0  0  0  0  0  0  0  0  0  0
  -84.9214   70.6622  105.9629 C   0  0  0  0  0  2  0  0  0  0  0  0
  -89.0276   69.2907  105.4468 C   0  0  0  0  0  2  0  0  0  0  0  0
  -88.2816   62.6221  104.2642 C   0  0  0  0  0  0  0  0  0  0  0  0
  -86.3052   70.1097  105.7399 C   0  0  0  0  0  3  0  0  0  0  0  0
  -82.2803   70.1443  105.6643 S   0  0  0  0  0  0  0  0  0  0  0  0
  -88.0716   66.2967  104.5768 O   0  0  0  0  0  0  0  0  0  0  0  0
  -88.1138   63.9001  104.8065 C   0  0  0  0  0  3  0  0  0  0  0  0
  -88.7560   61.2140  102.3444 O   0  0  0  0  0  1  0  0  0  0  0  0
  -90.4014   68.7246  105.1108 C   0  0  0  0  0  1  0  0  0  0  0  0
  -88.5855   62.4758  102.9018 C   0  0  0  0  0  0  0  0  0  0  0  0
  -85.4616   68.4233  104.1851 C   0  0  0  0  0  3  0  0  0  0  0  0
  -88.1876   67.5025  103.8325 C   0  0  0  0  0  2  0  0  0  0  0  0
  -88.1339   61.4322  105.1477 C   0  0  0  0  0  1  0  0  0  0  0  0
  1 17  2  0
  1  2  1  0
  2  4  2  0
  3  9  1  0
  4 14  1  0
  4 13  1  0
  5  3  1  0
  5 11  2  0
  6  7  1  0
  6 18  2  0
  7  8  1  0
  8 11  1  0
 10 20  1  0
 10 14  2  0
 12  7  2  0
 13 19  1  0
 15 17  1  0
 16  9  1  0
 17 10  1  0
 18  5  1  0
 19  3  1  0
M  RAD  8   1   2   2   2   6   2   8   3   9   3  11   2  14   2  15   2
M  RAD  4  16   2  18   2  19   3  20   2
M  END
$$$$
/tmp/tmp5hhbn6l8
     RDKit          3D

 20 20  0  0  1  0  0  0  0  0999 V2000
  -83.9082   67.5858  106.9398 C   0  0  0  0  0  3  0  0  0  0  0  0
  -86.9731   67.7656  102.6309 O   0  0  0  0  0  0  0  0  0  0  0  0
  -85.6652   67.7416  105.2714 C   0  0  0  0  0  0  0  0  0  0  0  0
  -84.7093   67.5384  104.2639 C   0  0  0  0  0  3  0  0  0  0  0  0
  -90.8161   64.2829  106.4068 O   0  0  0  0  0  0  0  0  0  0  0  0
  -82.9618   67.3841  105.9315 C   0  0  0  0  0  3  0  0  0  0  0  0
  -92.9710   64.4406  105.5887 O   0  0  0  0  0  0  0  0  0  0  0  0
  -89.8054   66.8227  103.7199 C   0  0  0  0  0  0  0  0  0  0  0  0
  -89.7891   63.3384  102.3382 C   0  0  0  0  0  1  0  0  0  0  0  0
  -83.3623   67.3604  104.5930 C   0  0  0  0  0  3  0  0  0  0  0  0
  -87.0556   67.9268  104.9731 N   0  0  0  0  0  2  0  0  0  0  0  0
  -91.0255   64.4573  104.0245 C   0  0  0  0  0  3  0  0  0  0  0  0
  -89.1329   68.1133  103.5552 C   0  0  0  0  0  2  0  0  0  0  0  0
  -85.2551   67.7637  106.6092 C   0  0  0  0  0  3  0  0  0  0  0  0
  -91.5885   64.3822  105.4131 C   0  0  0  0  0  0  0  0  0  0  0  0
  -90.3561   65.7589  103.8571 C   0  0  0  0  0  0  0  0  0  0  0  0
  -87.6602   67.9348  103.6731 C   0  0  0  0  0  0  0  0  0  0  0  0
  -93.5655   64.3818  106.8763 C   0  0  0  0  0  1  0  0  0  0  0  0
  -90.7437   62.1887  104.0087 O   0  0  0  0  0  1  0  0  0  0  0  0
  -90.0934   63.3529  103.7624 N   0  0  0  0  0  0  0  0  0  0  0  0
  1 14  2  0
  2 17  2  0
  3 11  1  0
  4  3  2  0
  5 15  2  0
  6  1  1  0
  6 10  2  0
  7 18  1  0
  8 13  1  0
  9 20  1  0
 10  4  1  0
 12 15  1  0
 12 16  1  0
 14  3  1  0
 15  7  1  0
 16  8  3  0
 17 13  1  0
 17 11  1  0
 19 20  1  0
 20 12  1  0
M  RAD  8   1   2   4   2   6   2   9   2  10   2  11   2  12   2  13   3
M  RAD  3  14   2  18   2  19   2
M  END
$$$$
/tmp/tmpubc6hz1r
     RDKit          3D

 20 23  0  0  0  0  0  0  0  0999 V2000
  -86.9396   68.5636  104.8307 C   0  0  0  0  0  0  0  0  0  0  0  0
  -84.6365   69.3128  105.2179 C   0  0  0  0  0  0  0  0  0  0  0  0
  -90.5595   65.1939  106.3654 O   0  0  0  0  0  0  0  0  0  0  0  0
  -88.1904   63.3375  102.1544 C   0  0  0  0  0  3  0  0  0  0  0  0
  -89.2890   64.5598  104.3900 C   0  0  0  0  0  0  0  0  0  0  0  0
  -85.9268   69.6171  104.5342 C   0  0  0  0  0  2  0  0  0  0  0  0
  -89.2330   62.7095  102.8675 C   0  0  0  0  0  3  0  0  0  0  0  0
  -83.6425   68.6548  104.6496 C   0  0  0  0  0  3  0  0  0  0  0  0
  -87.7948   68.7067  105.9451 C   0  0  0  0  0  3  0  0  0  0  0  0
  -89.7954   63.3214  104.0011 C   0  0  0  0  0  3  0  0  0  0  0  0
  -82.9683   69.0715  106.7768 C   0  0  0  0  0  3  0  0  0  0  0  0
  -82.5845   68.5108  105.6383 C   0  0  0  0  0  3  0  0  0  0  0  0
  -88.2652   65.1769  103.6901 C   0  0  0  0  0  0  0  0  0  0  0  0
  -87.6940   64.5870  102.5640 C   0  0  0  0  0  3  0  0  0  0  0  0
  -87.9617   66.4486  104.3415 C   0  0  0  0  0  0  0  0  0  0  0  0
  -89.6666   65.4201  105.5070 C   0  0  0  0  0  0  0  0  0  0  0  0
  -84.3381   69.6435  106.6358 C   0  0  0  0  0  2  0  0  0  0  0  0
  -88.7416   67.7159  106.2557 C   0  0  0  0  0  3  0  0  0  0  0  0
  -88.8026   66.5941  105.4322 C   0  0  0  0  0  0  0  0  0  0  0  0
  -87.0160   67.4187  104.0167 C   0  0  0  0  0  3  0  0  0  0  0  0
  1  6  1  0
  1  9  2  0
  2  6  1  0
  2 17  1  0
  4  7  2  0
  4 14  1  0
  5 16  1  0
  7 10  1  0
  8 12  1  0
  8  2  2  0
 10  5  2  0
 11 17  1  0
 12 11  2  0
 13  5  1  0
 13 15  1  0
 14 13  2  0
 15 20  2  0
 15 19  1  0
 16 19  1  0
 16  3  2  0
 18  9  1  0
 19 18  2  0
 20  1  1  0
M  RAD  8   4   2   6   3   7   2   8   2   9   2  10   2  11   2  12   2
M  RAD  4  14   2  17   3  18   2  20   2
M  END
$$$$
/tmp/tmpmaf4n29e
     RDKit          3D

 20 22  0  0  1  0  0  0  0  0999 V2000
  -89.4145   70.2939  107.0291 O   0  0  0  0  0  1  0  0  0  0  0  0
  -85.1547   70.0223  105.2752 O   0  0  0  0  0  0  0  0  0  0  0  0
  -87.2366   63.4396  103.0260 N   0  0  0  0  0  0  0  0  0  0  0  0
  -88.7856   68.3011  104.8916 C   0  0  0  0  0  2  0  0  0  0  0  0
  -88.2009   62.6010  103.7699 C   0  0  0  0  0  3  0  0  0  0  0  0
  -85.8659   70.5604  106.1627 C   0  0  0  0  0  0  0  0  0  0  0  0
  -89.1371   66.9029  104.5149 C   0  0  0  0  0  0  0  0  0  0  0  0
  -87.4293   61.2718  102.1177 C   0  0  0  0  0  3  0  0  0  0  0  0
  -90.3046   66.2368  104.9828 N   0  0  0  0  0  2  0  0  0  0  0  0
  -85.2846   70.9961  107.3462 O   0  0  0  0  0  1  0  0  0  0  0  0
  -89.0976   64.8606  103.6832 C   0  0  0  0  0  0  0  0  0  0  0  0
  -90.2112   64.9445  104.3962 C   0  0  0  0  0  3  0  0  0  0  0  0
  -88.6894   63.6675  102.8820 C   0  0  0  0  0  3  0  0  0  0  0  0
  -88.2181   61.3184  103.1158 N   0  0  0  0  0  0  0  0  0  0  0  0
  -88.1296   69.7821  106.8465 C   0  0  0  0  0  3  0  0  0  0  0  0
  -86.9629   67.7354  106.3506 O   0  0  0  0  0  1  0  0  0  0  0  0
  -87.3313   70.7217  105.9454 C   0  0  0  0  0  2  0  0  0  0  0  0
  -88.2156   68.3513  106.3064 C   0  0  0  0  0  3  0  0  0  0  0  0
  -88.3855   66.1340  103.7420 C   0  0  0  0  0  3  0  0  0  0  0  0
  -86.7880   62.5939  101.9136 C   0  0  0  0  0  2  0  0  0  0  0  0
  2  6  2  0
  3 20  1  0
  3 13  1  0
  3  5  1  0
  4 18  1  0
  5 14  1  0
  6 10  1  0
  7  9  1  0
  7  4  1  0
  8 14  2  0
 11 19  1  0
 11 12  2  0
 12  9  1  0
 13  5  1  0
 13 11  1  0
 15  1  1  0
 17 15  1  0
 17  6  1  0
 18 16  1  0
 18 15  1  0
 19  7  2  0
 20  8  1  0
M  RAD  8   1   2   4   3   5   2   8   2   9   2  10   2  12   2  13   2
M  RAD  6  15   2  16   2  17   3  18   2  19   2  20   3
M  END
$$$$
/tmp/tmpfjv5iqr3
     RDKit          3D

 20 21  0  0  1  0  0  0  0  0999 V2000
  -86.7919   60.5799  100.1825 C   0  0  0  0  0  2  0  0  0  0  0  0
  -88.4220   64.9096  104.7254 C   0  0  0  0  0  0  0  0  0  0  0  0
  -91.2233   67.0684  103.4600 O   0  0  0  0  0  0  0  0  0  0  0  0
  -85.7487   70.1693  105.4310 C   0  0  0  0  0  2  0  0  0  0  0  0
  -87.4518   61.3849  101.2308 C   0  0  0  0  0  3  0  0  0  0  0  0
  -89.7185   65.3661  104.1926 C   0  0  0  0  0  3  0  0  0  0  0  0
  -87.9069   62.7696  103.7109 N   0  0  0  0  0  0  0  0  0  0  0  0
  -86.4645   62.2026  101.9165 N   0  0  0  0  0  2  0  0  0  0  0  0
  -89.0058   67.7443  104.3830 C   0  0  0  0  0  3  0  0  0  0  0  0
  -85.4111   71.2443  104.4186 C   0  0  0  0  0  1  0  0  0  0  0  0
  -89.5302   68.5063  105.5896 C   0  0  0  0  0  1  0  0  0  0  0  0
  -86.6055   68.0168  104.7369 C   0  0  0  0  0  0  0  0  0  0  0  0
  -87.4262   65.7731  104.9231 C   0  0  0  0  0  3  0  0  0  0  0  0
  -87.6255   67.2054  104.6664 C   0  0  0  0  0  0  0  0  0  0  0  0
  -86.7464   62.8712  103.1468 C   0  0  0  0  0  3  0  0  0  0  0  0
  -89.9952   66.6675  103.9998 C   0  0  0  0  0  0  0  0  0  0  0  0
  -88.1937   63.4541  104.9624 C   0  0  0  0  0  2  0  0  0  0  0  0
  -92.2368   66.1511  103.0676 C   0  0  0  0  0  1  0  0  0  0  0  0
  -87.1421   60.0271  101.4276 O   0  0  0  0  0  0  0  0  0  0  0  0
  -85.5890   68.8294  104.8068 C   0  0  0  0  0  3  0  0  0  0  0  0
  1 19  1  0
  1  5  1  0
  2 13  2  0
  2  6  1  0
  3 18  1  0
  4 20  1  0
  5  8  1  0
  6 16  2  0
  7 17  1  0
  8 15  1  0
  9 16  1  0
  9 11  1  0
 10  4  1  0
 12 20  2  0
 13 14  1  0
 14  9  1  0
 14 12  2  0
 15  7  2  0
 16  3  1  0
 17  2  1  0
 19  5  1  0
M  RAD  8   1   3   4   3   5   2   6   2   8   2   9   2  10   2  11   2
M  RAD  5  13   2  15   2  17   3  18   2  20   2
M  END
$$$$

     RDKit          3D

 13 15  0  0  0  0  0  0  0  0999 V2000
  -87.2988   63.0843  101.7830 C   0  0  1  0  0  0  0  0  0  0  0  0
  -86.2462   62.3647  101.2204 O   0  0  0  0  0  1  0  0  0  0  0  0
  -88.3647   62.2005  102.4579 C   0  0  0  0  0  3  0  0  0  0  0  0
  -91.0859   66.0608  106.0036 C   0  0  0  0  0  3  0  0  0  0  0  0
  -89.4351   66.4103  104.1729 C   0  0  0  0  0  2  0  0  0  0  0  0
  -88.8709   64.1206  103.8478 C   0  0  0  0  0  0  0  0  0  0  0  0
  -87.8603   64.8972  103.2315 C   0  0  0  0  0  0  0  0  0  0  0  0
  -86.9639   64.5835  102.1251 C   0  0  0  0  0  2  0  0  0  0  0  0
  -89.3372   62.7650  103.5666 C   0  0  0  0  0  2  0  0  0  0  0  0
  -90.0041   66.9486  105.4771 C   0  0  0  0  0  2  0  0  0  0  0  0
  -88.8396   62.8817  100.7971 S   0  0  0  0  0  0  0  0  0  0  0  0
  -90.8197   64.9616  106.4620 O   0  0  0  0  0  0  0  0  0  0  0  0
  -88.4286   65.3062  104.4410 C   0  0  0  0  0  3  0  0  0  0  0  0
  1  2  1  6
  1  8  1  0
  1  3  1  0
  3  9  1  0
  5 10  1  0
  6 13  1  0
  7  6  2  0
  7 13  1  0
  8  7  1  0
  9  6  1  0
 10  4  1  0
 11  1  1  0
 11  3  1  0
 12  4  2  0
 13  5  1  0
M  RAD  8   2   2   3   2   4   2   5   3   8   3   9   3  10   3  13   2
M  END
$$$$
/tmp/tmpwtcs6q6t
     RDKit          3D

 20 22  0  0  1  0  0  0  0  0999 V2000
  -87.0208   69.8585  105.1417 C   0  0  0  0  0  3  0  0  0  0  0  0
  -83.4729   67.2649  105.3219 C   0  0  0  0  0  3  0  0  0  0  0  0
  -84.9620   67.5668  107.2857 S   0  0  0  0  0  0  0  0  0  0  0  0
  -89.0558   64.5938  103.9175 C   0  0  0  0  0  3  0  0  0  0  0  0
  -89.8693   68.7551  104.8498 C   0  0  0  0  0  3  0  0  0  0  0  0
  -87.6577   62.7140  104.9706 C   0  0  0  0  0  2  0  0  0  0  0  0
  -88.9950   67.6736  104.3490 C   0  0  0  0  0  0  0  0  0  0  0  0
  -89.0392   62.1988  105.3635 C   0  0  0  0  0  2  0  0  0  0  0  0
  -89.7188   63.4170  103.2061 C   0  0  0  0  0  2  0  0  0  0  0  0
  -87.7129   64.1867  104.5425 C   0  0  0  0  0  2  0  0  0  0  0  0
  -88.1380   70.5605  104.9676 C   0  0  0  0  0  3  0  0  0  0  0  0
  -87.7360   67.5752  104.6626 N   0  0  0  0  0  0  0  0  0  0  0  0
  -87.0332   68.4382  105.6036 C   0  0  0  0  0  3  0  0  0  0  0  0
  -85.6394   67.9441  105.8027 C   0  0  0  0  0  0  0  0  0  0  0  0
  -84.6938   67.7283  104.8109 C   0  0  0  0  0  3  0  0  0  0  0  0
  -89.5842   66.6766  103.5125 N   0  0  0  0  0  2  0  0  0  0  0  0
  -83.4479   67.1154  106.7071 C   0  0  0  0  0  3  0  0  0  0  0  0
  -90.0177   62.2711  104.1829 C   0  0  0  0  0  2  0  0  0  0  0  0
  -89.4993   70.0137  105.1134 C   0  0  0  0  0  3  0  0  0  0  0  0
  -88.8571   65.6439  103.0174 O   0  0  0  0  0  0  0  0  0  0  0  0
  1 11  2  0
  2 17  2  0
  4 20  1  0
  4 10  1  0
  5 19  2  0
  6 10  1  0
  7  5  1  0
  8  6  1  0
  9 18  1  0
  9  4  1  0
 12  7  2  0
 12 13  1  0
 13 14  1  0
 13  1  1  0
 14  3  1  0
 15  2  1  0
 15 14  2  0
 16  7  1  0
 17  3  1  0
 18  8  1  0
 19 11  1  0
 20 16  1  0
M  RAD  8   1   2   2   2   4   2   5   2   6   3   8   3   9   3  10   3
M  RAD  7  11   2  13   2  15   2  16   2  17   2  18   3  19   2
M  END
$$$$
/tmp/tmp9931w00h
     RDKit          3D

 20 22  0  0  1  0  0  0  0  0999 V2000
  -88.8188   63.3986  103.5870 N   0  0  0  0  0  0  0  0  0  0  0  0
  -88.3610   65.6159  104.3859 C   0  0  0  0  0  0  0  0  0  0  0  0
  -89.9087   62.7073  103.5918 C   0  0  0  0  0  0  0  0  0  0  0  0
  -90.5924   64.6194  104.5624 C   0  0  0  0  0  3  0  0  0  0  0  0
  -84.0406   68.4187  105.6454 C   0  0  0  0  0  2  0  0  0  0  0  0
  -87.5365   66.6079  104.5831 C   0  0  0  0  0  3  0  0  0  0  0  0
  -84.5865   67.1439  105.0520 C   0  0  0  0  0  2  0  0  0  0  0  0
  -86.6162   69.7319  106.2722 C   0  0  0  0  0  3  0  0  0  0  0  0
  -89.0054   68.4434  105.3582 C   0  0  0  0  0  2  0  0  0  0  0  0
  -89.9874   61.3275  103.0444 C   0  0  0  0  0  1  0  0  0  0  0  0
  -89.1869   64.6265  104.1906 C   0  0  0  0  0  0  0  0  0  0  0  0
  -87.9120   71.5217  108.2711 O   0  0  0  0  0  0  0  0  0  0  0  0
  -89.1109   69.6264  106.3060 C   0  0  0  0  0  2  0  0  0  0  0  0
  -86.5185   68.4185  105.9851 C   0  0  0  0  0  0  0  0  0  0  0  0
  -87.9197   71.6858  107.0218 C   0  0  0  0  0  0  0  0  0  0  0  0
  -87.7681   67.5941  105.6824 C   0  0  0  0  0  3  0  0  0  0  0  0
  -91.0389   63.4253  104.1888 C   0  0  0  0  0  3  0  0  0  0  0  0
  -87.8904   70.5123  106.1000 C   0  0  0  0  0  3  0  0  0  0  0  0
  -85.2199   67.7198  106.3086 C   0  0  0  0  0  3  0  0  0  0  0  0
  -87.9533   72.9701  106.4962 O   0  0  0  0  0  1  0  0  0  0  0  0
  1 11  1  0
  1  3  2  0
  2  6  2  0
  2 11  2  0
  3 17  1  0
  4 17  2  0
  5 19  1  0
  7  5  1  0
  7 19  1  0
  8 18  1  0
  9 13  1  0
 10  3  1  0
 11  4  1  0
 14  8  2  0
 15 12  2  0
 15 20  1  0
 16  6  1  0
 16 14  1  0
 16  9  1  0
 18 15  1  0
 18 13  1  0
 19 14  1  0
M  RAD  8   4   2   5   3   6   2   7   3   8   2   9   3  10   2  13   3
M  RAD  5  16   2  17   2  18   2  19   2  20   2
M  END
$$$$

     RDKit          3D

 15 16  0  0  0  0  0  0  0  0999 V2000
  -92.1586   66.7077  105.9039 C   0  0  0  0  0  1  0  0  0  0  0  0
  -88.3210   66.5155  103.9554 C   0  0  0  0  0  2  0  0  0  0  0  0
  -93.0680   64.3988  105.6007 C   0  0  0  0  0  2  0  0  0  0  0  0
  -87.9262   68.8534  104.5939 C   0  0  0  0  0  3  0  0  0  0  0  0
  -88.8625   62.7634  103.8183 C   0  0  0  0  0  2  0  0  0  0  0  0
  -92.2814   63.8644  104.4143 C   0  0  0  0  0  2  0  0  0  0  0  0
  -89.2707   68.6448  106.2249 O   0  0  0  0  0  0  0  0  0  0  0  0
  -88.8128   67.3822  106.1446 O   0  0  0  0  0  0  0  0  0  0  0  0
  -87.8890   67.4469  105.0740 C   0  0  0  0  0  3  0  0  0  0  0  0
  -88.1527   65.0704  104.3847 C   0  0  0  0  0  2  0  0  0  0  0  0
  -93.3498   65.8859  105.4499 C   0  0  0  0  0  2  0  0  0  0  0  0
  -88.7531   69.5139  105.3079 N   0  0  0  0  0  0  0  0  0  0  0  0
  -90.0378   63.6165  103.3813 C   0  0  0  0  0  3  0  0  0  0  0  0
  -88.6018   64.1453  103.2601 C   0  0  0  0  0  3  0  0  0  0  0  0
  -90.7964   64.0998  104.6103 C   0  0  0  0  0  2  0  0  0  0  0  0
  4 12  2  0
  6 15  1  0
  6  3  1  0
  8  7  1  0
  9  2  1  0
  9  8  1  0
  9  4  1  0
 10  2  1  0
 11  3  1  0
 11  1  1  0
 12  7  1  0
 13  5  1  0
 13 15  1  0
 14 10  1  0
 14 13  1  0
 14  5  1  0
M  RAD  8   1   2   2   3   3   3   4   2   5   3   6   3   9   2  10   3
M  RAD  4  11   3  13   2  14   2  15   3
M  END
$$$$

     RDKit          3D

 15 16  0  0  0  0  0  0  0  0999 V2000
  -88.8395   62.8089  102.4175 C   0  0  0  0  0  3  0  0  0  0  0  0
  -85.2365   62.5545  100.3942 C   0  0  0  0  0  1  0  0  0  0  0  0
  -91.3619   69.0161  107.1147 C   0  0  0  0  0  2  0  0  0  0  0  0
  -89.7408   66.4610  105.4420 C   0  0  0  0  0  2  0  0  0  0  0  0
  -86.8352   65.1338  102.4421 C   0  0  0  0  0  3  0  0  0  0  0  0
  -85.5509   63.7792  101.0425 O   0  0  0  0  0  0  0  0  0  0  0  0
  -87.9041   65.5431  103.3763 C   0  0  0  0  0  3  0  0  0  0  0  0
  -89.1428   65.0391  103.4229 C   0  0  0  0  0  0  0  0  0  0  0  0
  -86.6629   63.9307  101.8754 C   0  0  0  0  0  0  0  0  0  0  0  0
  -89.6262   64.0749  102.3922 C   0  0  0  0  0  2  0  0  0  0  0  0
  -90.0769   65.4971  104.4051 N   0  0  0  0  0  2  0  0  0  0  0  0
  -90.6131   67.7264  107.3811 C   0  0  0  0  0  3  0  0  0  0  0  0
  -91.8637   68.0543  108.1696 C   0  0  0  0  0  2  0  0  0  0  0  0
  -90.9588   66.7199  106.3036 C   0  0  0  0  0  2  0  0  0  0  0  0
  -87.5347   62.7610  102.1518 C   0  0  0  0  0  3  0  0  0  0  0  0
  1 10  1  0
  2  6  1  0
  4 14  1  0
  5  7  1  0
  6  9  1  0
  7  8  2  0
  8 11  1  0
  9 15  1  0
  9  5  2  0
 10  8  1  0
 11  4  1  0
 12 13  1  0
 12  3  1  0
 13  3  1  0
 14 12  1  0
 15  1  2  0
M  RAD  8   1   2   2   2   3   3   4   3   5   2   7   2  10   3  11   2
M  RAD  4  12   2  13   3  14   3  15   2
M  END
$$$$

     RDKit          3D

 11 11  0  0  0  0  0  0  0  0999 V2000
  -86.1445   67.2703  105.2454 C   0  0  0  0  0  3  0  0  0  0  0  0
  -88.4774   67.4209  105.8786 C   0  0  0  0  0  3  0  0  0  0  0  0
  -83.9697   69.5874  106.0948 C   0  0  0  0  0  2  0  0  0  0  0  0
  -88.4021   68.8162  105.8263 C   0  0  0  0  0  3  0  0  0  0  0  0
  -84.7824   69.3300  104.8386 C   0  0  0  0  0  2  0  0  0  0  0  0
  -81.6563   69.5578  105.5332 O   0  0  0  0  0  0  0  0  0  0  0  0
  -87.1983   69.4391  105.4827 C   0  0  0  0  0  3  0  0  0  0  0  0
  -87.3486   66.6480  105.5890 C   0  0  0  0  0  3  0  0  0  0  0  0
  -82.6338   71.6303  105.5968 O   0  0  0  0  0  1  0  0  0  0  0  0
  -82.6868   70.2501  105.7382 C   0  0  0  0  0  0  0  0  0  0  0  0
  -86.0690   68.6668  105.1873 C   0  0  0  0  0  0  0  0  0  0  0  0
  1 11  2  0
  1  8  1  0
  2  4  1  0
  3 10  1  0
  5  3  1  0
  5 11  1  0
  6 10  2  0
  7  4  2  0
  8  2  2  0
 10  9  1  0
 11  7  1  0
M  RAD  8   1   2   2   2   3   3   4   2   5   3   7   2   8   2   9   2
M  END
$$$$
/tmp/tmp_fhy8q0l
     RDKit          3D

 20 23  0  0  1  0  0  0  0  0999 V2000
  -91.8138   66.9182  105.1712 C   0  0  0  0  0  0  0  0  0  0  0  0
  -90.3485   65.3292  104.5489 C   0  0  0  0  0  0  0  0  0  0  0  0
  -85.0674   68.9715  105.1476 C   0  0  0  0  0  3  0  0  0  0  0  0
  -86.9505   67.8551  104.0115 C   0  0  0  0  0  2  0  0  0  0  0  0
  -83.9849   68.6749  106.1666 C   0  0  0  0  0  2  0  0  0  0  0  0
  -83.0238   70.8943  106.7666 O   0  0  0  0  0  1  0  0  0  0  0  0
  -82.9072   69.6968  106.0736 C   0  0  0  0  0  0  0  0  0  0  0  0
  -89.1404   64.7437  104.1771 C   0  0  0  0  0  3  0  0  0  0  0  0
  -86.1898   67.9696  105.3192 C   0  0  0  0  0  3  0  0  0  0  0  0
  -88.1451   66.9831  104.1860 C   0  0  0  0  0  0  0  0  0  0  0  0
  -90.4538   66.6882  104.7389 C   0  0  0  0  0  0  0  0  0  0  0  0
  -88.0319   65.5886  103.9875 C   0  0  0  0  0  3  0  0  0  0  0  0
  -89.3706   67.5480  104.5848 C   0  0  0  0  0  3  0  0  0  0  0  0
  -93.2893   67.0332  106.8240 C   0  0  0  0  0  3  0  0  0  0  0  0
  -81.9050   69.4900  105.3414 O   0  0  0  0  0  0  0  0  0  0  0  0
  -91.5605   64.6508  104.8822 N   0  0  0  0  0  2  0  0  0  0  0  0
  -92.2798   67.8111  106.1671 N   0  0  0  0  0  2  0  0  0  0  0  0
  -92.4031   65.7518  105.2450 C   0  0  0  0  0  0  0  0  0  0  0  0
  -86.3381   69.3736  105.8666 C   0  0  0  0  0  2  0  0  0  0  0  0
  -93.3776   65.7964  106.3233 C   0  0  0  0  0  3  0  0  0  0  0  0
  1 17  1  0
  2 11  1  0
  3  5  1  0
  3  9  1  0
  3 19  1  0
  5  7  1  0
  7 15  2  0
  7  6  1  0
  8  2  2  0
  8 12  1  0
  9  4  1  0
  9 19  1  0
 10  4  1  0
 11  1  1  0
 12 10  2  0
 13 11  2  0
 13 10  1  0
 14 17  1  0
 16  2  1  0
 16 18  1  0
 18  1  2  0
 20 18  1  0
 20 14  2  0
M  RAD  8   3   2   4   3   5   3   6   2   8   2   9   2  12   2  13   2
M  RAD  5  14   2  16   2  17   2  19   3  20   2
M  END
$$$$
/tmp/tmpbu_r63qd
     RDKit          3D

 20 20  0  0  0  0  0  0  0  0999 V2000
  -85.8254   67.0925  102.8938 C   0  0  0  0  0  2  0  0  0  0  0  0
  -90.6726   66.9127  105.2624 C   0  0  0  0  0  0  0  0  0  0  0  0
  -86.2722   68.8690  106.2732 C   0  0  0  0  0  2  0  0  0  0  0  0
  -86.4079   62.9401  102.1994 N   0  0  0  0  0  2  0  0  0  0  0  0
  -84.6417   67.8207  102.2863 C   0  0  0  0  0  1  0  0  0  0  0  0
  -88.6217   68.5039  106.7234 C   0  0  0  0  0  0  0  0  0  0  0  0
  -85.6080   68.0079  105.2102 C   0  0  0  0  0  2  0  0  0  0  0  0
  -85.9767   63.7169  103.3540 C   0  0  0  0  0  2  0  0  0  0  0  0
  -87.4700   63.6690  101.5114 C   0  0  0  0  0  2  0  0  0  0  0  0
  -90.4261   66.1400  104.3700 C   0  0  0  0  0  0  0  0  0  0  0  0
  -86.4810   67.9437  103.9674 C   0  0  0  0  0  2  0  0  0  0  0  0
  -87.1243   67.0412  107.7558 O   0  0  0  0  0  1  0  0  0  0  0  0
  -88.1405   64.3847  104.4012 C   0  0  0  0  0  3  0  0  0  0  0  0
  -87.3903   68.1320  106.9328 C   0  0  0  0  0  0  0  0  0  0  0  0
  -89.8556   68.8605  106.4824 C   0  0  0  0  0  3  0  0  0  0  0  0
  -86.9345   63.5036  104.5206 C   0  0  0  0  0  2  0  0  0  0  0  0
  -88.8070   63.4254  102.2064 C   0  0  0  0  0  2  0  0  0  0  0  0
  -88.9939   64.3620  103.3637 C   0  0  0  0  0  0  0  0  0  0  0  0
  -90.1246   65.2354  103.3388 N   0  0  0  0  0  2  0  0  0  0  0  0
  -90.9439   67.8439  106.3648 C   0  0  0  0  0  2  0  0  0  0  0  0
  1  5  1  0
  1 11  1  0
  2 20  1  0
  4  9  1  0
  4  8  1  0
  6 15  2  0
  7  3  1  0
  8 16  1  0
  9 17  1  0
 10  2  3  0
 11  7  1  0
 12 14  1  0
 14  6  2  0
 14  3  1  0
 16 13  1  0
 17 18  1  0
 18 13  2  0
 18 19  1  0
 19 10  1  0
 20 15  1  0
M  RAD  8   1   3   3   3   4   2   5   2   7   3   8   3   9   3  11   3
M  RAD  7  12   2  13   2  15   2  16   3  17   3  19   2  20   3
M  END
$$$$
/tmp/tmpvez67o37
     RDKit          3D

 20 20  0  0  1  0  0  0  0  0999 V2000
  -87.5398   62.3818  104.3433 C   0  0  0  0  0  1  0  0  0  0  0  0
  -90.1592   64.1715  104.1959 C   0  0  0  0  0  0  0  0  0  0  0  0
  -85.1147   66.2703  107.7229 C   0  0  0  0  0  1  0  0  0  0  0  0
  -90.2103   65.3716  104.6966 C   0  0  0  0  0  0  0  0  0  0  0  0
  -86.5568   68.6058  105.4094 C   0  0  0  0  0  2  0  0  0  0  0  0
  -89.2158   63.8936  103.0461 C   0  0  0  0  0  3  0  0  0  0  0  0
  -88.2273   64.9643  102.8627 N   0  0  0  0  0  2  0  0  0  0  0  0
  -89.2754   67.5760  104.3088 C   0  0  0  0  0  0  0  0  0  0  0  0
  -88.7474   61.6629  102.4621 O   0  0  0  0  0  0  0  0  0  0  0  0
  -85.5304   68.3579  106.4615 C   0  0  0  0  0  0  0  0  0  0  0  0
  -84.8015   70.2442  108.0062 O   0  0  0  0  0  0  0  0  0  0  0  0
  -88.9990   68.8936  104.9532 C   0  0  0  0  0  2  0  0  0  0  0  0
  -91.0155   63.1847  104.6692 O   0  0  0  0  0  1  0  0  0  0  0  0
  -88.8917   66.1131  102.2531 C   0  0  0  0  0  2  0  0  0  0  0  0
  -90.1266   66.6186  105.0554 C   0  0  0  0  0  3  0  0  0  0  0  0
  -88.5145   62.5820  103.2292 C   0  0  0  0  0  0  0  0  0  0  0  0
  -87.9354   68.7612  106.0332 C   0  0  0  0  0  2  0  0  0  0  0  0
  -85.1558   69.3269  107.2549 C   0  0  0  0  0  0  0  0  0  0  0  0
  -88.7212   67.3453  103.1015 C   0  0  0  0  0  3  0  0  0  0  0  0
  -84.7970   67.0595  106.4658 C   0  0  0  0  0  2  0  0  0  0  0  0
  2 13  1  0
  2  4  2  0
  4 15  2  0
  5 17  1  0
  6 16  1  0
  6  2  1  0
  7  6  1  0
  7 14  1  0
  8 15  1  0
  8 12  1  0
  9 16  2  0
 10  5  1  0
 10 18  2  0
 12 17  1  0
 14 19  1  0
 16  1  1  0
 18 11  2  0
 19  8  2  0
 20 10  1  0
 20  3  1  0
M  RAD  8   1   2   3   2   5   3   6   2   7   2  12   3  13   2  14   3
M  RAD  4  15   2  17   3  19   2  20   3
M  END
$$$$

     RDKit          3D

 15 17  0  0  0  0  0  0  0  0999 V2000
  -88.1740   70.1463  106.5458 C   0  0  0  0  0  3  0  0  0  0  0  0
  -89.1511   68.3322  104.4153 C   0  0  0  0  0  3  0  0  0  0  0  0
  -87.6482   66.5211  105.2075 C   0  0  0  0  0  3  0  0  0  0  0  0
  -85.4545   68.1096  107.7009 C   0  0  0  0  0  3  0  0  0  0  0  0
  -89.2003   66.2486  103.3224 C   0  0  0  0  0  0  0  0  0  0  0  0
  -85.2606   68.6063  109.0881 C   0  0  0  0  0  1  0  0  0  0  0  0
  -88.5439   70.4039  107.9399 C   0  0  0  0  0  2  0  0  0  0  0  0
  -88.2067   65.7613  104.1995 C   0  0  0  0  0  0  0  0  0  0  0  0
  -87.6088   68.7618  106.3687 C   0  0  0  0  0  0  0  0  0  0  0  0
  -88.2276   64.4398  103.5174 C   0  0  0  0  0  2  0  0  0  0  0  0
  -88.1403   67.8545  105.3171 C   0  0  0  0  0  0  0  0  0  0  0  0
  -89.7068   67.5297  103.3895 C   0  0  0  0  0  3  0  0  0  0  0  0
  -89.5835   70.0546  106.9653 N   0  0  0  0  0  2  0  0  0  0  0  0
  -89.2463   64.9390  102.6188 C   0  0  0  0  0  2  0  0  0  0  0  0
  -86.5274   68.4344  107.0368 C   0  0  0  0  0  0  0  0  0  0  0  0
  1  9  1  0
  1  7  1  0
  1 13  1  0
  3  8  2  0
  3 11  1  0
  4  6  1  0
  4 15  2  0
  5 14  1  0
  5 12  2  0
  7 13  1  0
  8  5  1  0
 10  8  1  0
 10 14  1  0
 11  9  1  0
 11  2  2  0
 12  2  1  0
 15  9  2  0
M  RAD  8   1   2   2   2   3   2   4   2   6   2   7   3  10   3  12   2
M  RAD  2  13   2  14   3
M  END
$$$$
/tmp/tmpmuoba5ui
     RDKit          3D

 20 20  0  0  1  0  0  0  0  0999 V2000
  -91.0515   66.2106  105.7606 O   0  0  0  0  0  0  0  0  0  0  0  0
  -85.0829   68.9847  105.5425 C   0  0  0  0  0  3  0  0  0  0  0  0
  -85.1358   69.8688  107.8503 C   0  0  0  0  0  1  0  0  0  0  0  0
  -86.6559   70.6711  103.2193 C   0  0  0  0  0  1  0  0  0  0  0  0
  -88.6729   65.1393  103.0359 N   0  0  0  0  0  0  0  0  0  0  0  0
  -89.0701   67.1517  104.9266 C   0  0  0  0  0  3  0  0  0  0  0  0
  -87.6338   69.6608  103.7868 C   0  0  0  0  0  2  0  0  0  0  0  0
  -84.3896   68.9867  106.8645 C   0  0  0  0  0  2  0  0  0  0  0  0
  -87.9267   67.2095  103.9954 C   0  0  0  0  0  0  0  0  0  0  0  0
  -89.9727   65.1905  103.7085 C   0  0  0  0  0  2  0  0  0  0  0  0
  -86.2343   68.3332  105.3761 C   0  0  0  0  0  3  0  0  0  0  0  0
  -93.1451   65.7385  104.6625 C   0  0  0  0  0  1  0  0  0  0  0  0
  -85.3158   62.7384  103.0377 O   0  0  0  0  0  1  0  0  0  0  0  0
  -92.1389   65.2951  105.7077 C   0  0  0  0  0  2  0  0  0  0  0  0
  -88.4291   64.0649  102.0866 C   0  0  0  0  0  2  0  0  0  0  0  0
  -86.9380   68.3298  104.0521 C   0  0  0  0  0  3  0  0  0  0  0  0
  -87.3888   63.0954  102.6274 C   0  0  0  0  0  2  0  0  0  0  0  0
  -87.7499   66.2339  103.1077 C   0  0  0  0  0  3  0  0  0  0  0  0
  -90.0112   66.2101  104.8269 C   0  0  0  0  0  0  0  0  0  0  0  0
  -86.1260   63.6881  102.6149 O   0  0  0  0  0  0  0  0  0  0  0  0
  1 14  1  0
  2  8  1  0
  3  8  1  0
  5 18  1  0
  5 10  1  0
  7  4  1  0
  9  6  1  0
  9 16  1  0
 10 19  1  0
 11  2  2  0
 12 14  1  0
 13 20  1  0
 15  5  1  0
 16  7  1  0
 16 11  1  0
 17 15  1  0
 18  9  2  0
 19  1  1  0
 19  6  2  0
 20 17  1  0
M  RAD  8   2   2   3   2   4   2   6   2   7   3   8   3  10   3  11   2
M  RAD  7  12   2  13   2  14   3  15   3  16   2  17   3  18   2
M  END
$$$$
