
     RDKit          3D

  8  7  0  0  0  0  0  0  0  0999 V2000
   22.6662   30.6476   15.7996 C   0  0  0  0  0  1  0  0  0  0  0  0
   20.4115   30.3198   14.6591 C   0  0  0  0  0  3  0  0  0  0  0  0
   20.7815   32.2464   16.2359 C   0  0  0  0  0  2  0  0  0  0  0  0
   21.6108   33.5035   16.4192 C   0  0  0  0  0  1  0  0  0  0  0  0
   20.9557   29.5873   13.4437 C   0  0  0  0  0  1  0  0  0  0  0  0
   20.5897   28.5009   16.1823 O   0  0  0  0  0  0  0  0  0  0  0  0
   21.4307   31.3234   15.2145 C   0  0  0  0  0  3  0  0  0  0  0  0
   19.8758   29.3560   15.6817 C   0  0  0  0  0  3  0  0  0  0  0  0
  2  5  1  0
  2  7  1  0
  2  8  1  0
  3  4  1  0
  7  1  1  0
  7  3  1  0
  8  6  2  0
M  RAD  7   1   2   2   2   3   3   4   2   5   2   7   2   8   2
M  END
$$$$
/tmp/tmplgjawfs6
     RDKit          3D

 20 21  0  0  1  0  0  0  0  0999 V2000
   20.8135   31.2189   12.0716 O   0  0  0  0  0  0  0  0  0  0  0  0
   20.1842   29.3464   16.3275 N   0  0  0  0  0  1  0  0  0  0  0  0
   20.2366   30.5330   15.4821 C   0  0  2  0  0  0  0  0  0  0  0  0
   16.9960   32.4921   15.9303 C   0  0  0  0  0  2  0  0  0  0  0  0
   18.0502   29.7897   14.3889 C   0  0  0  0  0  3  0  0  0  0  0  0
   20.8928   31.6555   16.2863 C   0  0  0  0  0  1  0  0  0  0  0  0
   17.7229   33.7950   15.6564 C   0  0  0  0  0  2  0  0  0  0  0  0
   18.2376   28.7423   10.7391 N   0  0  0  0  0  2  0  0  0  0  0  0
   22.4719   29.6799   14.5654 C   0  0  0  0  0  1  0  0  0  0  0  0
   18.7923   30.9378   15.0846 C   0  0  0  0  0  3  0  0  0  0  0  0
   21.2104   31.3630   13.2567 C   0  0  0  0  0  0  0  0  0  0  0  0
   18.1507   29.9533   12.8790 C   0  0  0  0  0  3  0  0  0  0  0  0
   16.9309   28.3355   11.2815 C   0  0  0  0  0  2  0  0  0  0  0  0
   17.9866   31.4013   16.3044 C   0  0  0  0  0  2  0  0  0  0  0  0
   18.0451   28.5948   12.1876 C   0  0  1  0  0  0  0  0  0  0  0  0
   16.8632   30.3041   13.5997 C   0  0  0  0  0  2  0  0  0  0  0  0
   21.7988   32.5624   13.6401 O   0  0  0  0  0  1  0  0  0  0  0  0
   18.8253   27.3990   12.7055 C   0  0  0  0  0  1  0  0  0  0  0  0
   21.0888   30.2213   14.2252 C   0  0  0  0  0  3  0  0  0  0  0  0
   16.7200   34.8587   15.2640 C   0  0  0  0  0  1  0  0  0  0  0  0
  1 11  2  0
  3  6  1  1
  3  2  1  0
  4 14  1  0
  5 10  1  0
  7  4  1  0
  7 20  1  0
  8 13  1  0
  8 15  1  0
 10  3  1  0
 10 14  1  0
 11 19  1  0
 12 16  1  0
 12  5  1  0
 13 15  1  0
 15 18  1  1
 15 12  1  0
 16  5  1  0
 17 11  1  0
 19  9  1  0
 19  3  1  0
M  RAD  8   2   3   4   3   5   2   6   2   7   3   8   2   9   2  10   2
M  RAD  8  12   2  13   3  14   3  16   3  17   2  18   2  19   2  20   2
M  END
$$$$
/tmp/tmp7luipcae
     RDKit          3D

 20 21  0  0  1  0  0  0  0  0999 V2000
   16.2427   30.5227   15.4924 C   0  0  0  0  0  2  0  0  0  0  0  0
   15.4949   32.8135   15.3126 C   0  0  0  0  0  3  0  0  0  0  0  0
   17.5713   30.5468   13.5033 O   0  0  0  0  0  0  0  0  0  0  0  0
   21.2630   31.4439   13.5440 C   0  0  0  0  0  2  0  0  0  0  0  0
   23.0904   32.0576   15.0913 C   0  0  0  0  0  2  0  0  0  0  0  0
   15.4612   31.5951   16.2148 C   0  0  0  0  0  2  0  0  0  0  0  0
   16.6118   32.5911   14.3080 C   0  0  0  0  0  2  0  0  0  0  0  0
   20.3392   28.1849   14.2893 C   0  0  0  0  0  1  0  0  0  0  0  0
   19.1939   29.5496   12.0794 C   0  0  0  0  0  2  0  0  0  0  0  0
   15.7754   33.9972   16.1042 N   0  0  0  0  0  1  0  0  0  0  0  0
   19.8581   30.0850   15.8945 C   0  0  0  0  0  2  0  0  0  0  0  0
   17.2648   31.2723   14.6704 C   0  0  0  0  0  3  0  0  0  0  0  0
   19.4017   29.3475   14.6254 C   0  0  0  0  0  3  0  0  0  0  0  0
   18.2633   28.3606   11.8777 C   0  0  0  0  0  1  0  0  0  0  0  0
   19.7612   31.6051   13.3728 C   0  0  0  0  0  3  0  0  0  0  0  0
   18.9652   30.2697   13.4257 C   0  0  2  0  0  0  0  0  0  0  0  0
   21.6198   31.6920   15.0009 C   0  0  0  0  0  3  0  0  0  0  0  0
   21.3410   30.4605   15.8596 C   0  0  0  0  0  2  0  0  0  0  0  0
   23.3896   32.7272   16.4195 C   0  0  0  0  0  1  0  0  0  0  0  0
   19.4826   32.3256   12.2082 O   0  0  0  0  0  1  0  0  0  0  0  0
  1  6  1  0
  2 10  1  0
  2  6  1  0
  4 17  1  0
  5 19  1  0
  7 12  1  0
  7  2  1  0
 12  3  1  0
 12  1  1  0
 13  8  1  0
 13 11  1  0
 14  9  1  0
 15 20  1  0
 15 16  1  0
 15  4  1  0
 16  9  1  6
 16  3  1  0
 16 13  1  0
 17 18  1  0
 17  5  1  0
 18 11  1  0
M  RAD  8   1   3   2   2   4   3   5   3   6   3   7   3   8   2   9   3
M  RAD  8  10   3  11   3  12   2  13   2  14   2  15   2  17   2  18   3
M  RAD  2  19   2  20   2
M  END
$$$$
/tmp/tmpb75kn8kg
     RDKit          3D

 20 20  0  0  1  0  0  0  0  0999 V2000
   18.8109   28.2229   13.0708 C   0  0  0  0  0  3  0  0  0  0  0  0
   16.5493   33.6773   17.8256 O   0  0  0  0  0  1  0  0  0  0  0  0
   17.7591   28.6579   14.0817 C   0  0  0  0  0  2  0  0  0  0  0  0
   17.2991   34.3624   16.8696 C   0  0  0  0  0  2  0  0  0  0  0  0
   18.3958   31.2009   12.7388 N   0  0  0  0  0  2  0  0  0  0  0  0
   18.1939   27.6364   11.9646 O   0  0  0  0  0  1  0  0  0  0  0  0
   17.1397   27.4458   14.7486 C   0  0  0  0  0  1  0  0  0  0  0  0
   20.6534   29.6328   14.9493 C   0  0  0  0  0  0  0  0  0  0  0  0
   18.0774   33.4139   13.9429 C   0  0  0  0  0  3  0  0  0  0  0  0
   20.0547   30.6621   15.7394 N   0  0  0  0  0  0  0  0  0  0  0  0
   20.8703   29.8518   13.4884 C   0  0  0  0  0  2  0  0  0  0  0  0
   19.6968   29.3899   12.6096 C   0  0  0  0  0  3  0  0  0  0  0  0
   17.3325   32.6720   15.0407 C   0  0  0  0  0  2  0  0  0  0  0  0
   18.1621   33.3820   16.0945 C   0  0  0  0  0  3  0  0  0  0  0  0
   18.9151   34.1137   15.0013 C   0  0  0  0  0  2  0  0  0  0  0  0
   20.0273   32.8623   12.6684 O   0  0  0  0  0  0  0  0  0  0  0  0
   19.0532   30.3975   11.8622 O   0  0  0  0  0  0  0  0  0  0  0  0
   18.9124   32.4798   13.1155 C   0  0  0  0  0  0  0  0  0  0  0  0
   20.9873   28.5321   15.4669 O   0  0  0  0  0  0  0  0  0  0  0  0
   19.8327   30.5166   17.0052 C   0  0  0  0  0  2  0  0  0  0  0  0
  1  6  1  0
  1  3  1  0
  3  7  1  0
  4  2  1  0
  5 18  1  0
  8 10  1  0
  8 19  2  0
  9 18  1  0
  9 15  1  0
  9 13  1  0
 10 20  2  0
 11  8  1  0
 12  1  1  0
 12 11  1  0
 13 14  1  0
 14  4  1  0
 15 14  1  0
 16 18  2  0
 17 12  1  0
 17  5  1  0
M  RAD  8   1   2   2   2   3   3   4   3   5   2   6   2   7   2   9   2
M  RAD  6  11   3  12   2  13   3  14   2  15   3  20   3
M  END
$$$$
/tmp/tmpjl1ytii6
     RDKit          3D

 20 21  0  0  1  0  0  0  0  0999 V2000
   21.3465   30.9470   14.8732 C   0  0  0  0  0  3  0  0  0  0  0  0
   21.3339   33.3247   15.1754 O   0  0  0  0  0  1  0  0  0  0  0  0
   18.2902   33.1433   15.9900 C   0  0  0  0  0  1  0  0  0  0  0  0
   17.1385   28.4268   13.4636 C   0  0  0  0  0  3  0  0  0  0  0  0
   18.8393   30.1923   11.6486 O   0  0  0  0  0  1  0  0  0  0  0  0
   18.2681   28.6115   14.4410 C   0  0  0  0  0  3  0  0  0  0  0  0
   18.4206   31.1395   14.3904 C   0  0  0  0  0  3  0  0  0  0  0  0
   22.7007   30.7232   15.5236 C   0  0  0  0  0  1  0  0  0  0  0  0
   19.2107   29.8113   14.1266 C   0  0  1  0  0  0  0  0  0  0  0  0
   18.9283   32.3467   13.5863 C   0  0  0  0  0  3  0  0  0  0  0  0
   19.1694   32.2858   15.0895 C   0  0  1  0  0  0  0  0  0  0  0  0
   16.2364   29.2456   13.3837 O   0  0  0  0  0  0  0  0  0  0  0  0
   20.1689   29.4839   16.3672 O   0  0  0  0  0  1  0  0  0  0  0  0
   17.7421   33.2073   13.1777 C   0  0  0  0  0  2  0  0  0  0  0  0
   18.2415   34.4822   12.5306 C   0  0  0  0  0  1  0  0  0  0  0  0
   20.6457   32.1514   15.4928 C   0  0  0  0  0  3  0  0  0  0  0  0
   20.4783   29.7032   15.0184 C   0  0  0  0  0  3  0  0  0  0  0  0
   17.7422   28.6854   15.7350 O   0  0  0  0  0  1  0  0  0  0  0  0
   19.6386   29.6824   12.6669 C   0  0  0  0  0  0  0  0  0  0  0  0
   20.6712   29.0288   12.3564 O   0  0  0  0  0  0  0  0  0  0  0  0
  1  8  1  0
  2 16  1  0
  4  6  1  0
  5 19  1  0
  9  6  1  1
  6 18  1  0
  7 10  1  0
  7 11  1  0
  9  7  1  0
  9 17  1  0
 10 11  1  0
 10 14  1  0
 11  3  1  1
 12  4  2  0
 15 14  1  0
 16 11  1  0
 16  1  1  0
 17  1  1  0
 17 13  1  0
 19  9  1  0
 20 19  2  0
M  RAD  8   1   2   2   2   3   2   4   2   5   2   6   2   7   2   8   2
M  RAD  7  10   2  13   2  14   3  15   2  16   2  17   2  18   2
M  END
$$$$
/tmp/tmpc6x2i1xg
     RDKit          3D

 20 22  0  0  1  0  0  0  0  0999 V2000
   16.4056   34.2109   14.5142 F   0  0  0  0  0  0  0  0  0  0  0  0
   17.3763   32.5263   15.8086 N   0  0  0  0  0  0  0  0  0  0  0  0
   17.4235   30.1585   15.3553 C   0  0  0  0  0  3  0  0  0  0  0  0
   19.3671   29.0155   14.4721 C   0  0  0  0  0  3  0  0  0  0  0  0
   20.2473   29.0879   13.2358 C   0  0  0  0  0  2  0  0  0  0  0  0
   20.6585   29.3114   16.4544 O   0  0  0  0  0  1  0  0  0  0  0  0
   18.8255   32.4018   17.6380 O   0  0  0  0  0  1  0  0  0  0  0  0
   18.1578   34.7279   15.8130 F   0  0  0  0  0  0  0  0  0  0  0  0
   17.6094   33.7414   15.0114 C   0  0  2  0  0  0  0  0  0  0  0  0
   19.8474   29.9801   15.5378 C   0  0  0  0  0  3  0  0  0  0  0  0
   18.4775   33.4863   13.9423 O   0  0  0  0  0  1  0  0  0  0  0  0
   22.7076   29.3354   13.4916 C   0  0  0  0  0  2  0  0  0  0  0  0
   18.6472   32.0069   16.3121 C   0  0  0  0  0  3  0  0  0  0  0  0
   22.5600   28.4095   12.3024 C   0  0  0  0  0  3  0  0  0  0  0  0
   22.0993   29.1940   11.1117 C   0  0  0  0  0  3  0  0  0  0  0  0
   18.6040   30.4964   16.2351 C   0  0  0  0  0  3  0  0  0  0  0  0
   16.8072   31.4821   14.9583 C   0  0  0  0  0  2  0  0  0  0  0  0
   21.6917   28.5856   10.0611 N   0  0  0  0  0  2  0  0  0  0  0  0
   17.9654   29.4611   14.1230 C   0  0  0  0  0  2  0  0  0  0  0  0
   21.5609   28.3438   13.4657 C   0  0  0  0  0  3  0  0  0  0  0  0
  2 13  1  0
  3 19  1  0
  3 16  1  0
  4  5  1  0
  4 10  1  0
  9  2  1  0
  9  8  1  0
  9  1  1  0
 10 16  1  0
 10  6  1  0
  9 11  1  6
 13 16  1  0
 13  7  1  0
 14 15  1  0
 14 20  1  0
 14 12  1  0
 17  3  1  0
 17  2  1  0
 18 15  2  0
 19  4  1  0
 20 12  1  0
 20  5  1  0
M  RAD  8   3   2   4   2   5   3   6   2   7   2  10   2  11   2  12   3
M  RAD  8  13   2  14   2  15   2  16   2  17   3  18   2  19   3  20   2
M  END
$$$$
/tmp/tmpp7430woh
     RDKit          3D

 20 19  0  0  1  0  0  0  0  0999 V2000
   19.4254   31.3949   14.2255 C   0  0  0  0  0  2  0  0  0  0  0  0
   17.9499   32.7836   15.6402 C   0  0  0  0  0  2  0  0  0  0  0  0
   18.7523   27.1123   12.5478 O   0  0  0  0  0  0  0  0  0  0  0  0
   22.9506   26.8700   11.6656 C   0  0  0  0  0  2  0  0  0  0  0  0
   18.3635   27.1403   10.2045 C   0  0  0  0  0  1  0  0  0  0  0  0
   16.4746   34.1742   17.0583 C   0  0  0  0  0  2  0  0  0  0  0  0
   18.0501   31.4969   14.8492 C   0  0  0  0  0  2  0  0  0  0  0  0
   16.5746   32.8855   16.2639 C   0  0  0  0  0  2  0  0  0  0  0  0
   14.8888   35.7267   18.1486 C   0  0  0  0  0  1  0  0  0  0  0  0
   22.6565   28.3101   12.0827 C   0  0  0  0  0  3  0  0  0  0  0  0
   21.1722   28.5270   12.3892 C   0  0  0  0  0  3  0  0  0  0  0  0
   23.4420   28.6592   13.1846 O   0  0  0  0  0  1  0  0  0  0  0  0
   19.1672   27.4644   11.4112 C   0  0  0  0  0  0  0  0  0  0  0  0
   20.8962   29.9809   12.7895 C   0  0  0  0  0  3  0  0  0  0  0  0
   15.1040   34.2969   17.6997 C   0  0  0  0  0  3  0  0  0  0  0  0
   19.5244   30.1061   13.4321 C   0  0  0  0  0  2  0  0  0  0  0  0
   21.0196   30.9261   11.6006 C   0  0  0  0  0  1  0  0  0  0  0  0
   20.3765   28.1461   11.2682 O   0  0  0  0  0  0  0  0  0  0  0  0
   22.6696   25.8823   12.7876 C   0  0  0  0  0  1  0  0  0  0  0  0
   15.0029   33.3785   18.9031 C   0  0  0  0  0  1  0  0  0  0  0  0
  1  7  1  0
  2  7  1  0
  4 19  1  0
  4 10  1  0
  5 13  1  0
  6 15  1  0
  8  2  1  0
  8  6  1  0
 10 11  1  0
 10 12  1  0
 11 18  1  0
 11 14  1  0
 13 18  1  0
 13  3  2  0
 14 17  1  0
 14 16  1  0
 15 20  1  0
 15  9  1  0
 16  1  1  0
M  RAD  8   1   3   2   3   4   3   5   2   6   3   7   3   8   3   9   2
M  RAD  8  10   2  11   2  12   2  14   2  15   2  16   3  17   2  19   2
M  RAD  1  20   2
M  END
$$$$
/tmp/tmpv06z64fx
     RDKit          3D

 20 20  0  0  1  0  0  0  0  0999 V2000
   18.6385   27.4385   14.5663 C   0  0  0  0  0  3  0  0  0  0  0  0
   17.4749   33.1656   16.6232 C   0  0  0  0  0  3  0  0  0  0  0  0
   19.3673   30.2796   15.3060 N   0  0  0  0  0  2  0  0  0  0  0  0
   18.3893   31.3196   15.2040 C   0  0  0  0  0  0  0  0  0  0  0  0
   17.4626   34.1671   15.5183 C   0  0  0  0  0  3  0  0  0  0  0  0
   17.9225   31.9193   16.4710 C   0  0  0  0  0  3  0  0  0  0  0  0
   21.2509   31.5537   13.2481 C   0  0  0  0  0  0  0  0  0  0  0  0
   17.6854   27.7656   13.4273 C   0  0  0  0  0  1  0  0  0  0  0  0
   18.0720   27.8079   15.7864 O   0  0  0  0  0  1  0  0  0  0  0  0
   21.3439   30.1803   13.8306 C   0  0  0  0  0  3  0  0  0  0  0  0
   20.6797   27.4587   13.3260 O   0  0  0  0  0  1  0  0  0  0  0  0
   20.0165   28.0851   14.3844 C   0  0  0  0  0  3  0  0  0  0  0  0
   22.2855   30.1503   15.0277 C   0  0  0  0  0  1  0  0  0  0  0  0
   17.8517   31.6045   14.0039 C   0  0  0  0  0  3  0  0  0  0  0  0
   16.8221   35.8604   16.1950 Br  0  0  0  0  0  0  0  0  0  0  0  0
   16.5925   33.7243   14.3907 C   0  0  0  0  0  3  0  0  0  0  0  0
   19.9572   29.6037   14.1518 C   0  0  0  0  0  3  0  0  0  0  0  0
   21.2751   31.7021   11.9990 O   0  0  0  0  0  0  0  0  0  0  0  0
   21.0993   32.6648   14.0700 O   0  0  0  0  0  1  0  0  0  0  0  0
   16.8039   32.6008   13.7063 C   0  0  0  0  0  3  0  0  0  0  0  0
  1  8  1  0
  1  9  1  0
  3  4  1  0
  4  6  1  0
  5  2  1  0
  5 15  1  0
  6  2  2  0
  7 19  1  0
  7 10  1  0
 10 17  1  0
 10 13  1  0
 12 11  1  0
 12  1  1  0
 14  4  2  0
 16  5  1  0
 17 12  1  0
 17  3  1  0
 18  7  2  0
 20 14  1  0
 20 16  2  0
M  RAD  8   1   2   2   2   3   2   5   2   6   2   8   2   9   2  10   2
M  RAD  8  11   2  12   2  13   2  14   2  16   2  17   2  19   2  20   2
M  END
$$$$
/tmp/tmpe874qnoi
     RDKit          3D

 20 22  0  0  1  0  0  0  0  0999 V2000
   20.0834   28.6688   12.9866 C   0  0  0  0  0  3  0  0  0  0  0  0
   19.3102   30.3897   14.7614 C   0  0  0  0  0  3  0  0  0  0  0  0
   20.6425   30.0905   15.4835 C   0  0  2  0  0  0  0  0  0  0  0  0
   18.9427   31.8705   14.6349 C   0  0  0  0  0  2  0  0  0  0  0  0
   16.4270   35.4558   16.0078 O   0  0  0  0  0  0  0  0  0  0  0  0
   19.5589   27.4851   12.1857 C   0  0  0  0  0  1  0  0  0  0  0  0
   16.8397   31.8858   15.9514 C   0  0  0  0  0  0  0  0  0  0  0  0
   19.0426   29.6112   13.4561 C   0  0  1  0  0  0  0  0  0  0  0  0
   20.8786   28.7829   15.9076 O   0  0  0  0  0  1  0  0  0  0  0  0
   18.2524   32.3729   15.8945 C   0  0  0  0  0  3  0  0  0  0  0  0
   19.9483   30.1771   11.9893 S   0  0  1  0  0  0  0  0  0  0  0  0
   20.7903   31.3873   12.2791 O   0  0  0  0  0  0  0  0  0  0  0  0
   16.7692   34.3051   15.7939 C   0  0  0  0  0  0  0  0  0  0  0  0
   16.5612   30.7846   16.3968 O   0  0  0  0  0  0  0  0  0  0  0  0
   17.5779   29.2878   13.1753 C   0  0  0  0  0  1  0  0  0  0  0  0
   21.2145   31.1334   16.4178 C   0  0  0  0  0  2  0  0  0  0  0  0
   18.2028   33.8952   15.8736 C   0  0  0  0  0  2  0  0  0  0  0  0
   21.8834   30.8499   15.0752 C   0  0  0  0  0  2  0  0  0  0  0  0
   19.0408   30.2594   10.7935 O   0  0  0  0  0  0  0  0  0  0  0  0
   15.5706   33.0309   15.4511 S   0  0  0  0  0  0  0  0  0  0  0  0
  1  6  1  0
 11  1  1  6
  1  8  1  0
  2  4  1  0
  2  3  1  0
  3 16  1  0
  3  9  1  1
  7 14  2  0
  8 15  1  6
  8  2  1  0
 10  4  1  0
 10 17  1  0
 10  7  1  0
 11  8  1  0
 11 12  2  0
 13  5  2  0
 17 13  1  0
 18  3  1  0
 18 16  1  0
 19 11  2  0
 20  7  1  0
 20 13  1  0
M  RAD  8   1   2   2   2   4   3   6   2   9   2  10   2  15   2  16   3
M  RAD  2  17   3  18   3
M  END
$$$$

     RDKit          3D

 15 15  0  0  0  0  0  0  0  0999 V2000
   19.9577   29.4976   16.8611 C   0  0  0  0  0  0  0  0  0  0  0  0
   21.1629   28.9301   16.4631 O   0  0  0  0  0  1  0  0  0  0  0  0
   18.5461   28.9614   12.3837 O   0  0  0  0  0  1  0  0  0  0  0  0
   20.8496   31.2457   14.1029 C   0  0  0  0  0  2  0  0  0  0  0  0
   19.3209   30.1104   12.5587 C   0  0  0  0  0  3  0  0  0  0  0  0
   20.4217   30.1376   11.4945 C   0  0  0  0  0  3  0  0  0  0  0  0
   19.8933   30.1221   17.9514 O   0  0  0  0  0  0  0  0  0  0  0  0
   18.5307   27.9850   15.4896 C   0  0  0  0  0  1  0  0  0  0  0  0
   19.8797   30.1433   13.9202 N   0  0  0  0  0  0  0  0  0  0  0  0
   19.9047   30.6983   10.3240 O   0  0  0  0  0  1  0  0  0  0  0  0
   22.3205   31.5454   10.9639 O   0  0  0  0  0  1  0  0  0  0  0  0
   21.1628   31.9259   12.9064 O   0  0  0  0  0  0  0  0  0  0  0  0
   21.6142   30.9490   12.0106 C   0  0  0  0  0  3  0  0  0  0  0  0
   18.7460   29.4034   15.9904 C   0  0  0  0  0  3  0  0  0  0  0  0
   18.7802   30.4118   14.8416 C   0  0  0  0  0  2  0  0  0  0  0  0
  1  7  2  0
  1  2  1  0
  4  9  1  0
  5  3  1  0
  5  9  1  0
  6 10  1  0
  6 13  1  0
  6  5  1  0
  9 15  1  0
 12  4  1  0
 13 11  1  0
 13 12  1  0
 14  8  1  0
 14 15  1  0
 14  1  1  0
M  RAD  8   2   2   3   2   4   3   5   2   6   2   8   2  10   2  11   2
M  RAD  3  13   2  14   2  15   3
M  END
$$$$
/tmp/tmprf4tq7g4
     RDKit          3D

 20 20  0  0  1  0  0  0  0  0999 V2000
   17.6612   29.4241   15.4151 C   0  0  0  0  0  2  0  0  0  0  0  0
   20.4598   28.4865   13.9851 C   0  0  0  0  0  3  0  0  0  0  0  0
   19.2570   31.8608   12.3602 O   0  0  0  0  0  1  0  0  0  0  0  0
   22.4734   30.2186   15.4180 O   0  0  0  0  0  1  0  0  0  0  0  0
   21.2666   31.5645   13.8206 C   0  0  0  0  0  2  0  0  0  0  0  0
   19.5190   28.5088   12.9512 O   0  0  0  0  0  1  0  0  0  0  0  0
   20.5984   31.5249   12.4816 C   0  0  0  0  0  0  0  0  0  0  0  0
   18.8343   30.2957   14.9761 C   0  0  0  0  0  3  0  0  0  0  0  0
   21.2527   31.1866   11.4613 O   0  0  0  0  0  0  0  0  0  0  0  0
   21.6291   29.1535   13.5596 O   0  0  0  0  0  0  0  0  0  0  0  0
   16.5675   32.4391   15.7115 C   0  0  0  0  0  2  0  0  0  0  0  0
   21.4236   30.1862   14.4949 C   0  0  1  0  0  0  0  0  0  0  0  0
   17.1378   28.7282   14.3266 O   0  0  0  0  0  1  0  0  0  0  0  0
   14.9819   33.8299   14.1517 N   0  0  0  0  0  0  0  0  0  0  0  0
   18.5194   33.9735   15.8560 C   0  0  0  0  0  1  0  0  0  0  0  0
   18.0205   32.6477   15.3130 C   0  0  0  0  0  3  0  0  0  0  0  0
   18.8870   31.5304   15.8711 C   0  0  0  0  0  2  0  0  0  0  0  0
   15.6815   33.2166   14.8398 C   0  0  0  0  0  0  0  0  0  0  0  0
   20.3833   28.9753   16.3351 O   0  0  0  0  0  1  0  0  0  0  0  0
   20.1690   29.5211   15.0635 C   0  0  2  0  0  0  0  0  0  0  0  0
  2  6  1  0
  2 20  1  0
  3  7  1  0
  5 12  1  0
  7  5  1  0
  8  1  1  0
  8 20  1  0
  8 17  1  0
  9  7  2  0
 10  2  1  0
 10 12  1  0
 11 18  1  0
 12 20  1  0
 12  4  1  1
 13  1  1  0
 14 18  3  0
 16 15  1  0
 16 11  1  0
 17 16  1  0
 20 19  1  1
M  RAD  8   1   3   2   2   3   2   4   2   5   3   6   2   8   2  11   3
M  RAD  5  13   2  15   2  16   2  17   3  19   2
M  END
$$$$

     RDKit          3D

  9  9  0  0  0  0  0  0  0  0999 V2000
   19.4864   29.2281   15.9527 N   0  0  0  0  0  0  0  0  0  0  0  0
   17.0748   31.6566   15.4201 C   0  0  0  0  0  3  0  0  0  0  0  0
   18.0891   32.8120   15.3770 C   0  0  0  0  0  2  0  0  0  0  0  0
   16.2713   34.5692   15.4232 C   0  0  0  0  0  2  0  0  0  0  0  0
   15.6185   32.1306   15.5460 C   0  0  0  0  0  2  0  0  0  0  0  0
   17.5004   34.0325   14.6763 C   0  0  0  0  0  2  0  0  0  0  0  0
   17.4059   30.7068   16.5597 C   0  0  0  0  0  2  0  0  0  0  0  0
   15.5219   33.4958   16.2238 C   0  0  0  0  0  2  0  0  0  0  0  0
   18.5687   29.8804   16.2201 C   0  0  0  0  0  0  0  0  0  0  0  0
  2  5  1  0
  2  7  1  0
  3  6  1  0
  3  2  1  0
  4  8  1  0
  5  8  1  0
  6  4  1  0
  7  9  1  0
  9  1  3  0
M  RAD  7   2   2   3   3   4   3   5   3   6   3   7   3   8   3
M  END
$$$$

     RDKit          3D

 14 14  0  0  0  0  0  0  0  0999 V2000
   22.0811   32.7848   15.6250 O   0  0  0  0  0  1  0  0  0  0  0  0
   19.6300   31.9028   14.4044 C   0  0  0  0  0  2  0  0  0  0  0  0
   22.0154   30.9911   17.3288 C   0  0  0  0  0  1  0  0  0  0  0  0
   21.4206   31.6784   16.1464 C   0  0  0  0  0  0  0  0  0  0  0  0
   15.1608   33.6438   16.8066 C   0  0  0  0  0  1  0  0  0  0  0  0
   17.1257   31.8768   14.2099 C   0  0  0  0  0  3  0  0  0  0  0  0
   18.3529   30.0352   15.1535 O   0  0  0  0  0  0  0  0  0  0  0  0
   19.6678   29.3589   16.9423 O   0  0  0  0  0  0  0  0  0  0  0  0
   15.5057   33.3242   15.3674 C   0  0  0  0  0  3  0  0  0  0  0  0
   19.4494   30.1408   15.9797 C   0  0  0  0  0  0  0  0  0  0  0  0
   16.7496   32.4997   15.3298 C   0  0  0  0  0  3  0  0  0  0  0  0
   15.7097   34.6198   14.6046 C   0  0  0  0  0  1  0  0  0  0  0  0
   20.2804   31.2594   15.5839 C   0  0  0  0  0  0  0  0  0  0  0  0
   18.3717   31.0453   14.1476 C   0  0  0  0  0  3  0  0  0  0  0  0
  1  4  1  0
  2 13  1  0
  4  3  1  0
  6 11  2  0
  7 10  1  0
  9  5  1  0
 10  8  2  0
 11  9  1  0
 12  9  1  0
 13 10  1  0
 13  4  2  0
 14  2  1  0
 14  6  1  0
 14  7  1  0
M  RAD  8   1   2   2   3   3   2   5   2   6   2   9   2  11   2  12   2
M  RAD  1  14   2
M  END
$$$$
/tmp/tmpfcyz6kiw
     RDKit          3D

 20 22  0  0  1  0  0  0  0  0999 V2000
   19.0191   34.5509   15.7312 Cl  0  0  0  0  0  0  0  0  0  0  0  0
   19.8502   31.2463   10.8027 C   0  0  0  0  0  1  0  0  0  0  0  0
   17.6608   28.4616   13.3999 C   0  0  0  0  0  2  0  0  0  0  0  0
   22.0320   30.9923   16.4892 C   0  0  0  0  0  2  0  0  0  0  0  0
   18.6487   29.1550   12.4749 C   0  0  0  0  0  3  0  0  0  0  0  0
   18.4977   31.8862   15.5561 C   0  0  0  0  0  3  0  0  0  0  0  0
   20.2266   32.6207   17.1415 C   0  0  0  0  0  2  0  0  0  0  0  0
   17.8214   32.1963   14.3739 O   0  0  0  0  0  1  0  0  0  0  0  0
   19.6291   32.8762   15.7716 C   0  0  0  0  0  3  0  0  0  0  0  0
   20.1868   30.1005   16.4440 C   0  0  0  0  0  3  0  0  0  0  0  0
   21.4249   29.9304   15.6937 N   0  0  0  0  0  2  0  0  0  0  0  0
   17.9571   29.3885   15.5442 C   0  0  0  0  0  3  0  0  0  0  0  0
   19.0202   28.2304   11.3447 C   0  0  0  0  0  2  0  0  0  0  0  0
   17.1135   29.4128   14.3572 N   0  0  0  0  0  2  0  0  0  0  0  0
   20.7852   31.2051   17.3155 C   0  0  0  0  0  3  0  0  0  0  0  0
   17.1721   29.5678   16.6852 O   0  0  0  0  0  1  0  0  0  0  0  0
   18.3285   28.9979   10.3890 O   0  0  0  0  0  0  0  0  0  0  0  0
   19.0513   30.4575   15.4646 C   0  0  0  0  0  3  0  0  0  0  0  0
   17.9107   29.8946   11.3884 C   0  0  0  0  0  3  0  0  0  0  0  0
   18.4361   31.2511   11.1685 N   0  0  0  0  0  2  0  0  0  0  0  0
  2 20  1  0
  3 14  1  0
  5  3  1  0
  6  8  1  0
  6  9  1  0
  6 18  1  0
  9  1  1  0
  9  7  1  0
 10 11  1  0
 11  4  1  0
 12 16  1  0
 13 17  1  0
 13  5  1  0
 14 12  1  0
 15  4  1  0
 15 10  1  0
 15  7  1  0
 17 19  1  0
 18 12  1  0
 18 10  1  0
 19  5  1  0
 19 20  1  0
M  RAD  8   2   2   3   3   4   3   5   2   6   2   7   3   8   2   9   2
M  RAD  8  10   2  11   2  12   2  13   3  14   2  15   2  16   2  18   2
M  RAD  2  19   2  20   2
M  END
$$$$
/tmp/tmp_dlyi2cv
     RDKit          3D

 20 21  0  0  1  0  0  0  0  0999 V2000
   18.3600   27.2486   15.1663 O   0  0  0  0  0  1  0  0  0  0  0  0
   19.6947   30.9246   13.0025 O   0  0  0  0  0  0  0  0  0  0  0  0
   18.1419   32.1570   14.3336 C   0  0  0  0  0  2  0  0  0  0  0  0
   15.4566   33.0001   15.3266 O   0  0  0  0  0  1  0  0  0  0  0  0
   17.4956   29.0928   12.6481 C   0  0  0  0  0  2  0  0  0  0  0  0
   20.3184   28.5290   15.1064 N   0  0  0  0  0  2  0  0  0  0  0  0
   17.3886   31.3858   16.4685 O   0  0  0  0  0  1  0  0  0  0  0  0
   17.6815   28.9041   11.1351 C   0  0  0  0  0  2  0  0  0  0  0  0
   19.9545   29.5214   12.9161 C   0  0  2  0  0  0  0  0  0  0  0  0
   16.6576   33.5645   15.7626 C   0  0  0  0  0  3  0  0  0  0  0  0
   21.0258   29.0593   13.9274 C   0  0  0  0  0  3  0  0  0  0  0  0
   18.9643   29.5817   10.6082 C   0  0  0  0  0  2  0  0  0  0  0  0
   18.8858   28.4841   14.7909 C   0  0  0  0  0  3  0  0  0  0  0  0
   21.9770   27.9906   13.3975 C   0  0  0  0  0  2  0  0  0  0  0  0
   19.4205   31.3425   14.3172 C   0  0  0  0  0  2  0  0  0  0  0  0
   17.7756   32.5279   15.7605 C   0  0  0  0  0  3  0  0  0  0  0  0
   20.2108   29.2053   11.4377 C   0  0  0  0  0  2  0  0  0  0  0  0
   18.7899   28.6471   13.3013 C   0  0  0  0  0  3  0  0  0  0  0  0
   22.9508   28.5791   12.5905 O   0  0  0  0  0  1  0  0  0  0  0  0
   16.4753   34.1414   17.1529 C   0  0  0  0  0  1  0  0  0  0  0  0
  2 15  1  0
  3 16  1  0
  4 10  1  0
  6 13  1  0
  8  5  1  0
  9  2  1  6
  9 11  1  0
  9 18  1  0
 10 20  1  0
 11 14  1  0
 11  6  1  0
 12  8  1  0
 13  1  1  0
 15  3  1  0
 16  7  1  0
 16 10  1  0
 17 12  1  0
 17  9  1  0
 18  5  1  0
 18 13  1  0
 19 14  1  0
M  RAD  8   1   2   3   3   4   2   5   3   6   2   7   2   8   3  10   2
M  RAD  8  11   2  12   3  13   2  14   3  15   3  16   2  17   3  18   2
M  RAD  2  19   2  20   2
M  END
$$$$

     RDKit          3D

 13 14  0  0  0  0  0  0  0  0999 V2000
   20.7468   32.4482   11.4207 O   0  0  0  0  0  1  0  0  0  0  0  0
   20.4143   30.8882   13.1984 C   0  0  0  0  0  3  0  0  0  0  0  0
   18.6691   29.1093   14.6606 C   0  0  0  0  0  3  0  0  0  0  0  0
   20.6238   28.3884   15.8821 N   0  0  0  0  0  2  0  0  0  0  0  0
   18.2479   30.3356   14.0881 O   0  0  0  0  0  0  0  0  0  0  0  0
   21.0825   29.7241   13.9332 C   0  0  0  0  0  2  0  0  0  0  0  0
   18.9012   29.4445   11.9587 O   0  0  0  0  0  0  0  0  0  0  0  0
   17.9447   28.4938   12.3671 C   0  0  0  0  0  3  0  0  0  0  0  0
   20.1502   29.1312   14.9523 C   0  0  0  0  0  0  0  0  0  0  0  0
   18.9541   30.5461   12.8672 C   0  0  0  0  0  3  0  0  0  0  0  0
   17.8914   27.3608   11.3645 C   0  0  0  0  0  1  0  0  0  0  0  0
   18.3009   27.9421   13.7441 C   0  0  0  0  0  2  0  0  0  0  0  0
   21.2081   31.2437   11.9521 C   0  0  0  0  0  2  0  0  0  0  0  0
  1 13  1  0
  2 13  1  0
  2  6  1  0
  3 12  1  0
  3  9  1  0
  5  3  1  0
  6  9  1  0
  7  8  1  0
  8 11  1  0
  8 12  1  0
  9  4  2  0
 10  7  1  0
 10  2  1  0
 10  5  1  0
M  RAD  8   1   2   2   2   3   2   4   2   6   3   8   2  10   2  11   2
M  RAD  2  12   3  13   3
M  END
$$$$
/tmp/tmp96ndvwqm
     RDKit          3D

 20 19  0  0  1  0  0  0  0  0999 V2000
   17.4459   32.9600   18.6483 C   0  0  0  0  0  3  0  0  0  0  0  0
   21.2944   31.6071   15.1835 O   0  0  0  0  0  0  0  0  0  0  0  0
   19.3751   32.9370   15.3436 C   0  0  0  0  0  2  0  0  0  0  0  0
   18.5326   33.0165   19.7055 C   0  0  0  0  0  1  0  0  0  0  0  0
   17.4814   31.9405    9.2775 C   0  0  0  0  0  1  0  0  0  0  0  0
   19.8429   31.2783   13.3309 C   0  0  1  0  0  0  0  0  0  0  0  0
   18.1409   28.2510   13.9858 N   0  0  0  0  0  2  0  0  0  0  0  0
   21.3704   29.1973   13.3994 C   0  0  0  0  0  1  0  0  0  0  0  0
   19.0854   29.0196   14.3829 C   0  0  0  0  0  0  0  0  0  0  0  0
   17.9787   33.4642   17.3191 C   0  0  0  0  0  2  0  0  0  0  0  0
   17.2847   31.3646   13.7524 C   0  0  0  0  0  1  0  0  0  0  0  0
   16.2856   33.8296   19.0835 C   0  0  0  0  0  1  0  0  0  0  0  0
   19.9391   29.7223   13.3605 C   0  0  0  0  0  3  0  0  0  0  0  0
   18.1792   31.2478   11.4908 N   0  0  0  0  0  2  0  0  0  0  0  0
   18.8648   32.4166   16.6733 C   0  0  0  0  0  2  0  0  0  0  0  0
   20.2251   31.9012   14.6692 C   0  0  0  0  0  0  0  0  0  0  0  0
   17.7617   32.3894   10.6959 C   0  0  0  0  0  2  0  0  0  0  0  0
   20.7689   31.7470   12.3923 O   0  0  0  0  0  1  0  0  0  0  0  0
   19.4058   29.0817   15.8405 C   0  0  0  0  0  1  0  0  0  0  0  0
   18.4446   31.7383   12.8360 C   0  0  0  0  0  3  0  0  0  0  0  0
  1 12  1  0
  1  4  1  0
  3 15  1  0
  6 18  1  6
  6 16  1  0
  6 13  1  0
  9  7  2  0
  9 19  1  0
 10  1  1  0
 13  8  1  0
 13  9  1  0
 14 20  1  0
 15 10  1  0
 16  2  2  0
 16  3  1  0
 17  5  1  0
 17 14  1  0
 20  6  1  0
 20 11  1  0
M  RAD  8   1   2   3   3   4   2   5   2   7   2   8   2  10   3  11   2
M  RAD  8  12   2  13   2  14   2  15   3  17   3  18   2  19   2  20   2
M  END
$$$$
/tmp/tmpiv2iwzu_
     RDKit          3D

 20 21  0  0  1  0  0  0  0  0999 V2000
   17.2639   33.3183   16.9513 C   0  0  0  0  0  3  0  0  0  0  0  0
   16.5034   34.5681   16.6233 C   0  0  0  0  0  0  0  0  0  0  0  0
   18.4177   33.1279   15.9803 C   0  0  0  0  0  3  0  0  0  0  0  0
   17.0447   35.7569   16.8814 C   0  0  0  0  0  2  0  0  0  0  0  0
   15.0431   34.4960   16.3228 C   0  0  0  0  0  1  0  0  0  0  0  0
   20.4140   29.5113   14.0670 C   0  0  1  0  0  0  0  0  0  0  0  0
   18.6831   26.5020   12.4120 C   0  0  0  0  0  3  0  0  0  0  0  0
   18.5132   31.6595   15.6187 C   0  0  0  0  0  3  0  0  0  0  0  0
   19.4651   28.7317   13.1532 C   0  0  0  0  0  2  0  0  0  0  0  0
   20.1617   29.1653   15.3967 O   0  0  0  0  0  1  0  0  0  0  0  0
   16.4476   25.7513   11.7725 C   0  0  0  0  0  1  0  0  0  0  0  0
   20.0072   31.2103   11.3671 C   0  0  0  0  0  2  0  0  0  0  0  0
   18.7944   31.5190   14.1353 C   0  0  0  0  0  2  0  0  0  0  0  0
   17.3792   26.4778   12.6786 C   0  0  0  0  0  3  0  0  0  0  0  0
   20.6265   31.7810   10.1858 N   0  0  0  0  0  1  0  0  0  0  0  0
   17.1608   32.3128   15.8162 C   0  0  0  0  0  3  0  0  0  0  0  0
   21.7359   29.1740   13.7628 O   0  0  0  0  0  1  0  0  0  0  0  0
   20.8073   31.6042   12.5991 C   0  0  0  0  0  2  0  0  0  0  0  0
   19.6332   27.2256   13.3077 C   0  0  0  0  0  2  0  0  0  0  0  0
   20.2259   31.0350   13.8993 C   0  0  0  0  0  3  0  0  0  0  0  0
  1  3  1  0
  2  1  1  0
  2  5  1  0
  4  2  2  0
  6 17  1  6
  6 10  1  0
  7 19  1  0
  8 16  1  0
  8  3  1  0
  9  6  1  0
 11 14  1  0
 12 18  1  0
 13  8  1  0
 14  7  2  0
 15 12  1  0
 16  1  1  0
 16  3  1  0
 18 20  1  0
 19  9  1  0
 20 13  1  0
 20  6  1  0
M  RAD  8   1   2   3   2   4   3   5   2   7   2   8   2   9   3  10   2
M  RAD  8  11   2  12   3  13   3  14   2  15   3  16   2  17   2  18   3
M  RAD  2  19   3  20   2
M  END
$$$$
/tmp/tmpc3ra_8zi
     RDKit          3D

 20 21  0  0  1  0  0  0  0  0999 V2000
   15.8846   33.0905   17.0210 C   0  0  0  0  0  3  0  0  0  0  0  0
   20.0884   29.2234   15.1451 S   0  0  0  0  0  0  0  0  0  0  0  0
   18.9111   30.5040   14.6079 C   0  0  0  0  0  2  0  0  0  0  0  0
   21.2359   29.2974   13.7051 C   0  0  0  0  0  3  0  0  0  0  0  0
   21.0685   32.7304   15.7944 C   0  0  0  0  0  2  0  0  0  0  0  0
   15.2808   33.7247   15.9311 C   0  0  0  0  0  0  0  0  0  0  0  0
   20.7999   28.4084   12.5421 C   0  0  0  0  0  2  0  0  0  0  0  0
   21.7952   30.6655   13.2658 C   0  0  0  0  0  3  0  0  0  0  0  0
   23.1589   31.7507   16.6908 C   0  0  0  0  0  1  0  0  0  0  0  0
   22.6609   31.4213   14.2848 C   0  0  0  0  0  2  0  0  0  0  0  0
   20.8431   31.4853   12.6593 O   0  0  0  0  0  1  0  0  0  0  0  0
   17.7542   32.4484   15.6170 C   0  0  0  0  0  0  0  0  0  0  0  0
   15.9101   33.7206   14.6828 C   0  0  0  0  0  3  0  0  0  0  0  0
   17.1188   32.4526   16.8635 C   0  0  0  0  0  3  0  0  0  0  0  0
   17.1440   33.0831   14.5244 C   0  0  0  0  0  3  0  0  0  0  0  0
   19.0690   31.7523   15.4692 C   0  0  0  0  0  3  0  0  0  0  0  0
   22.0502   31.5641   15.6777 C   0  0  0  0  0  3  0  0  0  0  0  0
   20.0075   32.6148   14.8871 O   0  0  0  0  0  0  0  0  0  0  0  0
   14.0559   34.3581   16.0885 O   0  0  0  0  0  1  0  0  0  0  0  0
   19.5227   28.8972   11.8804 C   0  0  0  0  0  1  0  0  0  0  0  0
  3  2  1  0
  4  7  1  0
  4  2  1  0
  6  1  2  0
  6 19  1  0
  8 11  1  0
  8  4  1  0
  8 10  1  0
 10 17  1  0
 12 14  2  0
 13  6  1  0
 14  1  1  0
 15 12  1  0
 15 13  2  0
 16  3  1  0
 16 12  1  0
 17  5  1  0
 17  9  1  0
 18 16  1  0
 18  5  1  0
 20  7  1  0
M  RAD  8   1   2   3   3   4   2   5   3   7   3   8   2   9   2  10   3
M  RAD  8  11   2  13   2  14   2  15   2  16   2  17   2  19   2  20   2
M  END
$$$$

     RDKit          3D

 14 14  0  0  0  0  0  0  0  0999 V2000
   18.5270   29.5907   16.7845 O   0  0  0  0  0  0  0  0  0  0  0  0
   21.0045   30.4709   14.5866 C   0  0  1  0  0  0  0  0  0  0  0  0
   18.4761   29.2984   13.3984 O   0  0  0  0  0  0  0  0  0  0  0  0
   18.5847   30.6549   13.7195 C   0  0  0  0  0  2  0  0  0  0  0  0
   21.9972   31.5894   14.8782 C   0  0  0  0  0  2  0  0  0  0  0  0
   17.7451   29.2761   12.2121 C   0  0  0  0  0  2  0  0  0  0  0  0
   16.8754   27.8311   10.4049 C   0  0  0  0  0  1  0  0  0  0  0  0
   20.8510   29.4964   15.7266 C   0  0  0  0  0  3  0  0  0  0  0  0
   20.9097   28.0326   15.3036 C   0  0  0  0  0  1  0  0  0  0  0  0
   19.5873   30.8946   14.8594 C   0  0  0  0  0  3  0  0  0  0  0  0
   21.2032   29.8841   13.3278 O   0  0  0  0  0  1  0  0  0  0  0  0
   23.4275   31.0779   14.8540 C   0  0  0  0  0  1  0  0  0  0  0  0
   17.6674   27.8553   11.6948 C   0  0  0  0  0  2  0  0  0  0  0  0
   19.4099   29.9036   16.0025 C   0  0  0  0  0  0  0  0  0  0  0  0
  2 11  1  6
  2  8  1  0
  2  5  1  0
  2 10  1  0
  3  4  1  0
  5 12  1  0
  6  3  1  0
  7 13  1  0
  8  9  1  0
  8 14  1  0
 10  4  1  0
 10 14  1  0
 13  6  1  0
 14  1  2  0
M  RAD  8   4   3   5   3   6   3   7   2   8   2   9   2  10   2  11   2
M  RAD  2  12   2  13   3
M  END
$$$$
/tmp/tmplaehec49
     RDKit          3D

 20 20  0  0  1  0  0  0  0  0999 V2000
   21.9644   30.9161   15.5453 O   0  0  0  0  0  1  0  0  0  0  0  0
   18.6574   32.8404   13.8150 C   0  0  0  0  0  2  0  0  0  0  0  0
   20.8789   31.3814   13.0766 O   0  0  0  0  0  1  0  0  0  0  0  0
   19.3738   31.9938   14.7660 N   0  0  0  0  0  2  0  0  0  0  0  0
   17.6777   33.7400   14.5505 C   0  0  0  0  0  2  0  0  0  0  0  0
   13.9530   33.2157   15.1205 C   0  0  0  0  0  1  0  0  0  0  0  0
   19.0489   29.5840   11.9932 C   0  0  0  0  0  3  0  0  0  0  0  0
   20.1671   29.5412   16.2542 C   0  0  0  0  0  0  0  0  0  0  0  0
   20.8936   28.1485   12.7117 O   0  0  0  0  0  1  0  0  0  0  0  0
   20.9182   30.1104   15.0872 C   0  0  0  0  0  3  0  0  0  0  0  0
   15.2807   33.9501   15.1292 C   0  0  0  0  0  2  0  0  0  0  0  0
   18.0790   29.5320   14.1473 O   0  0  0  0  0  0  0  0  0  0  0  0
   18.7209   28.1179   11.7666 C   0  0  0  0  0  2  0  0  0  0  0  0
   20.1506   28.5850   11.6120 C   0  0  0  0  0  3  0  0  0  0  0  0
   19.0063   29.9413   13.4624 C   0  0  0  0  0  0  0  0  0  0  0  0
   20.0381   30.8774   14.0788 C   0  0  2  0  0  0  0  0  0  0  0  0
   19.7182   30.2953   17.1576 O   0  0  0  0  0  0  0  0  0  0  0  0
   16.6737   32.2292   16.2596 C   0  0  0  0  0  1  0  0  0  0  0  0
   19.9554   28.1371   16.3374 N   0  0  0  0  0  1  0  0  0  0  0  0
   16.4290   32.9722   14.9560 C   0  0  0  0  0  3  0  0  0  0  0  0
  2  5  1  0
  4  2  1  0
  5 20  1  0
  7 13  1  0
  7 15  1  0
  8 19  1  0
  8 17  2  0
 10  1  1  0
 10  8  1  0
 11  6  1  0
 14  9  1  0
 14  7  1  0
 14 13  1  0
 15 12  2  0
 15 16  1  0
 16  3  1  6
 16 10  1  0
 16  4  1  0
 20 18  1  0
 20 11  1  0
M  RAD  8   1   2   2   3   3   2   4   2   5   3   6   2   7   2   9   2
M  RAD  7  10   2  11   3  13   3  14   2  18   2  19   3  20   2
M  END
$$$$
/tmp/tmpqar_5xfw
     RDKit          3D

 20 21  0  0  1  0  0  0  0  0999 V2000
   16.5211   35.1137   15.7822 C   0  0  0  0  0  3  0  0  0  0  0  0
   17.9077   35.0491   15.6194 C   0  0  0  0  0  3  0  0  0  0  0  0
   21.5411   29.7337   14.5911 C   0  0  0  0  0  3  0  0  0  0  0  0
   20.5989   27.5654   12.8281 N   0  0  0  0  0  1  0  0  0  0  0  0
   20.0461   31.8123   13.0574 C   0  0  0  0  0  2  0  0  0  0  0  0
   22.0166   29.5327   13.2582 O   0  0  0  0  0  0  0  0  0  0  0  0
   18.5129   33.8423   15.2570 C   0  0  0  0  0  3  0  0  0  0  0  0
   19.6675   29.3086   15.9081 C   0  0  0  0  0  3  0  0  0  0  0  0
   18.3082   31.4687   14.6951 O   0  0  0  0  0  0  0  0  0  0  0  0
   19.7066   31.3031   14.4590 C   0  0  0  0  0  3  0  0  0  0  0  0
   19.3242   31.1058   12.0936 O   0  0  0  0  0  1  0  0  0  0  0  0
   21.5836   28.5066   12.4091 C   0  0  0  0  0  0  0  0  0  0  0  0
   16.3455   32.7645   15.2206 C   0  0  0  0  0  3  0  0  0  0  0  0
   22.0711   28.4166   11.2531 O   0  0  0  0  0  0  0  0  0  0  0  0
   20.0849   29.8878   14.6179 N   0  0  0  0  0  0  0  0  0  0  0  0
   15.7402   33.9716   15.5831 C   0  0  0  0  0  3  0  0  0  0  0  0
   19.7525   30.2892   17.0829 C   0  0  0  0  0  1  0  0  0  0  0  0
   17.7326   32.6919   15.0542 C   0  0  0  0  0  0  0  0  0  0  0  0
   20.6248   28.1712   16.1843 C   0  0  0  0  0  2  0  0  0  0  0  0
   21.9090   28.5602   15.4855 C   0  0  0  0  0  2  0  0  0  0  0  0
  2  1  2  0
  3  6  1  0
  3 15  1  0
  3 20  1  0
  7  2  1  0
  8 17  1  0
  8 19  1  0
  9 10  1  0
  9 18  1  0
 10  5  1  0
 10 15  1  0
 11  5  1  0
 12  4  1  0
 12  6  1  0
 13 16  2  0
 14 12  2  0
 15  8  1  0
 16  1  1  0
 18 13  1  0
 18  7  2  0
 20 19  1  0
M  RAD  8   1   2   2   2   3   2   4   3   5   3   7   2   8   2  10   2
M  RAD  6  11   2  13   2  16   2  17   2  19   3  20   3
M  END
$$$$

     RDKit          3D

 14 15  0  0  0  0  0  0  0  0999 V2000
   19.9558   31.1298   13.0746 C   0  0  0  0  0  0  0  0  0  0  0  0
   22.4585   29.5110   15.2992 O   0  0  0  0  0  1  0  0  0  0  0  0
   19.7474   29.4715   16.1215 N   0  0  0  0  0  2  0  0  0  0  0  0
   19.5617   32.2182   12.6881 O   0  0  0  0  0  0  0  0  0  0  0  0
   20.1724   28.8865   14.8618 C   0  0  0  0  0  3  0  0  0  0  0  0
   18.9766   28.9761   13.9055 C   0  0  2  0  0  0  0  0  0  0  0  0
   22.4677   32.8522   13.5637 O   0  0  0  0  0  1  0  0  0  0  0  0
   21.1859   31.0306   13.9373 C   0  0  0  0  0  3  0  0  0  0  0  0
   19.2067   29.8878   12.6911 C   0  0  0  0  0  2  0  0  0  0  0  0
   22.3402   31.5490   13.2191 N   0  0  0  0  0  2  0  0  0  0  0  0
   17.8603   29.4862   14.6840 N   0  0  0  0  0  2  0  0  0  0  0  0
   18.2940   29.4467   16.0745 C   0  0  0  0  0  2  0  0  0  0  0  0
   18.6385   27.5849   13.4057 C   0  0  0  0  0  1  0  0  0  0  0  0
   21.4452   29.5755   14.3407 C   0  0  0  0  0  3  0  0  0  0  0  0
  1  9  1  0
  1  8  1  0
  4  1  2  0
  5  3  1  0
  6 13  1  6
  6 11  1  0
  6  5  1  0
  8 10  1  0
  8 14  1  0
  9  6  1  0
 10  7  1  0
 11 12  1  0
 12  3  1  0
 14  5  1  0
 14  2  1  0
M  RAD  8   2   2   3   2   5   2   7   2   8   2   9   3  10   2  11   2
M  RAD  3  12   3  13   2  14   2
M  END
$$$$
/tmp/tmpoh3g5jhc
     RDKit          3D

 20 20  0  0  1  0  0  0  0  0999 V2000
   20.8048   30.6611   12.5355 C   0  0  0  0  0  3  0  0  0  0  0  0
   19.6493   30.1327   14.7352 C   0  0  0  0  0  0  0  0  0  0  0  0
   17.7968   35.3135   18.3882 O   0  0  0  0  0  0  0  0  0  0  0  0
   18.0574   31.7663   14.0642 O   0  0  0  0  0  0  0  0  0  0  0  0
   18.3305   30.3949   14.0501 C   0  0  0  0  0  3  0  0  0  0  0  0
   16.7426   33.3284   15.3111 C   0  0  0  0  0  2  0  0  0  0  0  0
   21.9418   30.8013   14.6494 O   0  0  0  0  0  1  0  0  0  0  0  0
   18.3068   29.8728   12.5999 C   0  0  0  0  0  3  0  0  0  0  0  0
   17.8233   28.4908   12.5075 N   0  0  0  0  0  2  0  0  0  0  0  0
   19.6426   29.8636   10.6454 O   0  0  0  0  0  0  0  0  0  0  0  0
   16.9015   31.8940   14.8375 C   0  0  0  0  0  2  0  0  0  0  0  0
   17.1576   34.8993   17.2735 S   0  0  0  0  0  3  0  0  0  0  0  0
   20.7176   32.0581   12.5550 O   0  0  0  0  0  1  0  0  0  0  0  0
   19.0809   33.9959   15.8685 C   0  0  0  0  0  1  0  0  0  0  0  0
   17.7159   33.6492   16.4362 C   0  0  0  0  0  3  0  0  0  0  0  0
   19.6605   29.9129   15.9366 O   0  0  0  0  0  0  0  0  0  0  0  0
   20.9453   30.1068   13.9596 C   0  0  0  0  0  3  0  0  0  0  0  0
   19.5969   30.0931   11.8431 C   0  0  0  0  0  0  0  0  0  0  0  0
   18.7683   27.5600   13.1147 C   0  0  0  0  0  2  0  0  0  0  0  0
   18.2256   26.1503   13.0126 C   0  0  0  0  0  1  0  0  0  0  0  0
  1 13  1  0
  1 17  1  0
  2 16  2  0
  4 11  1  0
  5  4  1  0
  5  2  1  0
  6 15  1  0
  8  9  1  0
  8  5  1  0
  9 19  1  0
 10 18  2  0
 11  6  1  0
 12  3  2  0
 15 14  1  0
 15 12  1  0
 17  2  1  0
 17  7  1  0
 18  8  1  0
 18  1  1  0
 20 19  1  0
M  RAD  8   1   2   5   2   6   3   7   2   8   2   9   2  11   3  12   2
M  RAD  6  13   2  14   2  15   2  17   2  19   3  20   2
M  END
$$$$

     RDKit          3D

 15 15  0  0  0  0  0  0  0  0999 V2000
   19.9173   29.8977   16.4644 O   0  0  0  0  0  1  0  0  0  0  0  0
   21.1979   31.8741   12.6736 O   0  0  0  0  0  1  0  0  0  0  0  0
   21.6972   29.0320   12.3612 C   0  0  0  0  0  2  0  0  0  0  0  0
   19.2394   29.4503   15.3262 C   0  0  0  0  0  3  0  0  0  0  0  0
   20.1456   31.0061   12.9684 C   0  0  1  0  0  0  0  0  0  0  0  0
   20.2344   28.9012   14.3403 C   0  0  0  0  0  0  0  0  0  0  0  0
   17.4722   31.1952   15.7465 C   0  0  0  0  0  2  0  0  0  0  0  0
   19.3264   30.8943   11.8434 O   0  0  0  0  0  1  0  0  0  0  0  0
   20.7046   29.6354   13.3089 C   0  0  0  0  0  0  0  0  0  0  0  0
   15.5572   32.5760   16.0254 O   0  0  0  0  0  1  0  0  0  0  0  0
   22.9411   28.9166   12.9828 O   0  0  0  0  0  1  0  0  0  0  0  0
   16.3934   32.0133   15.0627 C   0  0  0  0  0  2  0  0  0  0  0  0
   20.7053   27.6082   14.5473 O   0  0  0  0  0  1  0  0  0  0  0  0
   19.3312   31.6173   14.1101 C   0  0  0  0  0  2  0  0  0  0  0  0
   18.4008   30.5733   14.7138 C   0  0  0  0  0  3  0  0  0  0  0  0
  5  2  1  6
  3  9  1  0
  3 11  1  0
  4  1  1  0
  5  9  1  0
  5 14  1  0
  6 13  1  0
  6  4  1  0
  8  5  1  0
  9  6  2  0
 12  7  1  0
 12 10  1  0
 14 15  1  0
 15  4  1  0
 15  7  1  0
M  RAD  8   1   2   2   2   3   3   4   2   7   3   8   2  10   2  11   2
M  RAD  4  12   3  13   2  14   3  15   2
M  END
$$$$

     RDKit          3D

 18 19  0  0  0  0  0  0  0  0999 V2000
   20.2310   29.3537   15.7044 C   0  0  0  0  0  0  0  0  0  0  0  0
   19.0359   29.3852   12.9705 C   0  0  0  0  0  3  0  0  0  0  0  0
   16.2238   33.1712   15.8566 C   0  0  0  0  0  3  0  0  0  0  0  0
   17.8874   30.1490   15.0762 C   0  0  0  0  0  3  0  0  0  0  0  0
   16.5136   34.4417   16.6294 C   0  0  0  0  0  2  0  0  0  0  0  0
   20.5625   29.3015   13.1836 C   0  0  0  0  0  3  0  0  0  0  0  0
   19.0191   32.3414   12.2361 O   0  0  0  0  0  1  0  0  0  0  0  0
   22.4570   29.4831   14.7256 N   0  0  0  0  0  1  0  0  0  0  0  0
   21.2341   29.9803   12.1629 O   0  0  0  0  0  1  0  0  0  0  0  0
   21.0537   29.8193   14.5387 C   0  0  0  0  0  3  0  0  0  0  0  0
   16.6663   34.4223   15.1246 C   0  0  0  0  0  2  0  0  0  0  0  0
   19.0101   31.8980   13.5584 C   0  0  0  0  0  2  0  0  0  0  0  0
   20.6440   28.4262   16.4504 O   0  0  0  0  0  0  0  0  0  0  0  0
   18.2999   30.5471   13.6529 C   0  0  0  0  0  3  0  0  0  0  0  0
   18.9992   30.0077   16.0156 N   0  0  0  0  0  2  0  0  0  0  0  0
   16.7969   31.0469   15.6498 C   0  0  0  0  0  2  0  0  0  0  0  0
   17.3091   32.3044   15.9790 O   0  0  0  0  0  0  0  0  0  0  0  0
   18.7084   29.3252   11.6143 O   0  0  0  0  0  1  0  0  0  0  0  0
  1 15  1  0
  1 13  2  0
  2 18  1  0
  2  6  1  0
  2 14  1  0
  3 17  1  0
  3  5  1  0
  4 15  1  0
  4 16  1  0
  6  9  1  0
  6 10  1  0
  7 12  1  0
 10  8  1  0
 10  1  1  0
 11  3  1  0
 11  5  1  0
 14 12  1  0
 14  4  1  0
 16 17  1  0
M  RAD  8   2   2   3   2   4   2   5   3   6   2   7   2   8   3   9   2
M  RAD  7  10   2  11   3  12   3  14   2  15   2  16   3  18   2
M  END
$$$$
/tmp/tmpzp1cqkrb
     RDKit          3D

 20 21  0  0  1  0  0  0  0  0999 V2000
   21.5706   29.9148   14.5425 C   0  0  0  0  0  0  0  0  0  0  0  0
   17.9678   33.1366   14.2773 C   0  0  0  0  0  2  0  0  0  0  0  0
   15.8548   32.3384   18.6216 O   0  0  0  0  0  1  0  0  0  0  0  0
   15.7046   32.1632   17.2456 C   0  0  0  0  0  2  0  0  0  0  0  0
   22.4953   30.9393   14.6909 O   0  0  0  0  0  1  0  0  0  0  0  0
   19.2280   31.5093   15.7936 C   0  0  0  0  0  3  0  0  0  0  0  0
   16.9840   32.5534   16.5300 C   0  0  0  0  0  3  0  0  0  0  0  0
   18.7013   29.5536   12.0044 C   0  0  0  0  0  2  0  0  0  0  0  0
   21.0257   29.2365   11.6703 C   0  0  0  0  0  2  0  0  0  0  0  0
   20.2573   30.1933   13.8649 C   0  0  0  0  0  3  0  0  0  0  0  0
   19.2896   32.8192   14.9935 C   0  0  0  0  0  2  0  0  0  0  0  0
   19.1588   29.7570   10.5800 C   0  0  0  0  0  3  0  0  0  0  0  0
   19.0995   30.2878   14.8738 C   0  0  0  0  0  3  0  0  0  0  0  0
   21.8316   28.7681   14.9944 O   0  0  0  0  0  0  0  0  0  0  0  0
   19.9581   29.1871   12.7456 C   0  0  0  0  0  3  0  0  0  0  0  0
   19.0002   29.1111   15.6239 O   0  0  0  0  0  1  0  0  0  0  0  0
   18.0937   31.5367   16.8359 C   0  0  0  0  0  2  0  0  0  0  0  0
   16.7282   32.6382   15.0300 C   0  0  0  0  0  2  0  0  0  0  0  0
   17.8707   28.9832    9.3635 Br  0  0  0  0  0  0  0  0  0  0  0  0
   20.4023   29.1312   10.4194 O   0  0  0  0  0  0  0  0  0  0  0  0
  1  5  1  0
  2 18  1  0
  2 11  1  0
  4  3  1  0
  6 13  1  0
  6 17  1  0
  7  4  1  0
  7 17  1  0
  8 15  1  0
  9 15  1  0
 10  1  1  0
 10 13  1  0
 11  6  1  0
 12 19  1  0
 12  8  1  0
 13 16  1  0
 14  1  2  0
 15 10  1  0
 18  7  1  0
 20 12  1  0
 20  9  1  0
M  RAD  8   2   3   3   2   4   3   5   2   6   2   7   2   8   3   9   3
M  RAD  8  10   2  11   3  12   2  13   2  15   2  16   2  17   3  18   3
M  END
$$$$
/tmp/tmpmoujpxa4
     RDKit          3D

 20 20  0  0  1  0  0  0  0  0999 V2000
   19.4434   30.3529   15.4979 C   0  0  0  0  0  3  0  0  0  0  0  0
   22.5396   31.1583   13.4911 O   0  0  0  0  0  1  0  0  0  0  0  0
   20.1753   30.4071   16.6886 O   0  0  0  0  0  1  0  0  0  0  0  0
   17.1284   30.7035   15.0645 O   0  0  0  0  0  1  0  0  0  0  0  0
   17.0282   34.1521   15.9737 C   0  0  0  0  0  2  0  0  0  0  0  0
   18.6134   32.5534   14.8172 C   0  0  0  0  0  3  0  0  0  0  0  0
   19.7259   30.1870   13.0126 C   0  0  0  0  0  3  0  0  0  0  0  0
   20.0173   32.3416   14.2632 C   0  0  0  0  0  2  0  0  0  0  0  0
   18.4888   33.8672   15.6179 C   0  0  1  0  0  0  0  0  0  0  0  0
   15.1706   33.5043   16.9748 C   0  0  0  0  0  1  0  0  0  0  0  0
   19.9128   28.6706   13.0026 C   0  0  0  0  0  2  0  0  0  0  0  0
   18.9364   34.9222   14.8209 O   0  0  0  0  0  1  0  0  0  0  0  0
   19.3386   33.8364   16.8843 C   0  0  0  0  0  1  0  0  0  0  0  0
   20.2716   30.8424   14.3008 C   0  0  1  0  0  0  0  0  0  0  0  0
   16.5415   33.2569   16.9301 O   0  0  0  0  0  0  0  0  0  0  0  0
   21.7715   30.5549   14.4900 C   0  0  0  0  0  2  0  0  0  0  0  0
   18.2617   31.3006   15.6162 C   0  0  0  0  0  3  0  0  0  0  0  0
   17.5957   28.0132   12.3594 C   0  0  0  0  0  1  0  0  0  0  0  0
   20.3030   30.7474   11.8687 O   0  0  0  0  0  1  0  0  0  0  0  0
   19.0512   28.0221   11.9317 C   0  0  0  0  0  2  0  0  0  0  0  0
  1 17  1  0
  1  3  1  0
  2 16  1  0
  5 15  1  0
  6  9  1  0
  6 17  1  0
  7 19  1  0
  7 14  1  0
  8  6  1  0
  9  5  1  0
  9 13  1  1
 11  7  1  0
 12  9  1  0
 14  8  1  0
 14 16  1  1
 14  1  1  0
 15 10  1  0
 17  4  1  0
 20 18  1  0
 20 11  1  0
M  RAD  8   1   2   2   2   3   2   4   2   5   3   6   2   7   2   8   3
M  RAD  8  10   2  11   3  12   2  13   2  16   3  17   2  18   2  19   2
M  RAD  1  20   3
M  END
$$$$
/tmp/tmpmdexj026
     RDKit          3D

 20 21  0  0  1  0  0  0  0  0999 V2000
   19.1601   30.3674   16.9626 C   0  0  0  0  0  2  0  0  0  0  0  0
   15.6836   33.0730   12.8345 C   0  0  0  0  0  1  0  0  0  0  0  0
   23.6365   31.1493   12.9644 O   0  0  0  0  0  0  0  0  0  0  0  0
   16.6867   31.0367   15.0915 C   0  0  0  0  0  2  0  0  0  0  0  0
   16.6381   34.4150   14.7695 C   0  0  0  0  0  2  0  0  0  0  0  0
   15.1649   34.4967   14.7827 N   0  0  0  0  0  2  0  0  0  0  0  0
   20.4183   31.1794   14.9013 C   0  0  0  0  0  2  0  0  0  0  0  0
   21.8536   30.6080   11.5339 C   0  0  0  0  0  1  0  0  0  0  0  0
   19.2125   26.7229   14.4237 C   0  0  0  0  0  2  0  0  0  0  0  0
   17.8970   26.1994   14.9688 C   0  0  0  0  0  1  0  0  0  0  0  0
   18.7954   29.1661   14.7258 C   0  0  0  0  0  2  0  0  0  0  0  0
   21.7136   30.4108   15.1390 C   0  0  0  0  0  2  0  0  0  0  0  0
   18.0475   31.4697   15.6426 C   0  0  0  0  0  3  0  0  0  0  0  0
   19.6341   27.9749   15.1706 C   0  0  0  0  0  2  0  0  0  0  0  0
   22.6069   30.5114   12.8150 C   0  0  0  0  0  0  0  0  0  0  0  0
   22.1102   29.6144   13.9030 C   0  0  0  0  0  2  0  0  0  0  0  0
   15.6430   32.1256   15.2988 C   0  0  0  0  0  2  0  0  0  0  0  0
   18.0685   31.3271   17.0942 N   0  0  0  0  0  2  0  0  0  0  0  0
   15.8444   33.2793   14.3278 C   0  0  1  0  0  0  0  0  0  0  0  0
   19.1801   30.4671   15.4503 C   0  0  1  0  0  0  0  0  0  0  0  0
  1 18  1  0
  3 15  2  0
  4 17  1  0
  6  5  1  0
  8 15  1  0
  9 14  1  0
 10  9  1  0
 12  7  1  0
 13  4  1  0
 13 18  1  0
 14 11  1  0
 15 16  1  0
 16 12  1  0
 17 19  1  0
 19  2  1  6
 19  6  1  0
 19  5  1  0
 20 11  1  6
 20  7  1  0
 20 13  1  0
 20  1  1  0
M  RAD  8   1   3   2   2   4   3   5   3   6   2   7   3   8   2   9   3
M  RAD  8  10   2  11   3  12   3  13   2  14   3  16   3  17   3  18   2
M  END
$$$$

     RDKit          3D

 10  9  0  0  0  0  0  0  0  0999 V2000
   20.7967   31.8781   14.7463 C   0  0  0  0  0  0  0  0  0  0  0  0
   16.0397   33.6865   18.2012 C   0  0  0  0  0  2  0  0  0  0  0  0
   19.3106   31.9159   14.7746 C   0  0  0  0  0  2  0  0  0  0  0  0
   16.3707   33.2245   15.8117 C   0  0  0  0  0  3  0  0  0  0  0  0
   17.0308   33.7185   17.0574 C   0  0  0  0  0  2  0  0  0  0  0  0
   17.0104   33.1373   14.6413 C   0  0  0  0  0  3  0  0  0  0  0  0
   18.7336   33.6030   14.4304 S   0  0  0  0  0  0  0  0  0  0  0  0
   21.3988   31.5904   13.6796 O   0  0  0  0  0  0  0  0  0  0  0  0
   16.7106   34.1853   19.4634 C   0  0  0  0  0  1  0  0  0  0  0  0
   21.5211   32.1965   15.8870 O   0  0  0  0  0  1  0  0  0  0  0  0
  1 10  1  0
  1  3  1  0
  2  9  1  0
  4  5  1  0
  5  2  1  0
  6  4  2  0
  7  6  1  0
  7  3  1  0
  8  1  2  0
M  RAD  7   2   3   3   3   4   2   5   3   6   2   9   2  10   2
M  END
$$$$
/tmp/tmpjzoddi9f
     RDKit          3D

 20 21  0  0  1  0  0  0  0  0999 V2000
   21.6350   31.0319   16.9628 C   0  0  0  0  0  2  0  0  0  0  0  0
   19.6116   29.1067   13.4730 C   0  0  0  0  0  1  0  0  0  0  0  0
   17.5125   30.6821   15.2777 C   0  0  0  0  0  0  0  0  0  0  0  0
   22.9951   31.9666   11.5411 O   0  0  0  0  0  0  0  0  0  0  0  0
   22.3889   29.8510   14.3075 C   0  0  0  0  0  2  0  0  0  0  0  0
   15.3468   33.4794   15.1371 C   0  0  0  0  0  3  0  0  0  0  0  0
   21.0015   33.0099   13.2902 O   0  0  0  0  0  1  0  0  0  0  0  0
   17.3233   29.5218   15.7320 O   0  0  0  0  0  0  0  0  0  0  0  0
   21.4939   31.7712   15.6348 C   0  0  0  0  0  2  0  0  0  0  0  0
   20.3767   30.7321   17.4843 O   0  0  0  0  0  1  0  0  0  0  0  0
   22.5795   31.4070   12.5427 C   0  0  0  0  0  0  0  0  0  0  0  0
   19.8844   30.0988   14.5998 C   0  0  0  0  0  3  0  0  0  0  0  0
   16.5520   32.9321   14.8830 N   0  0  0  0  0  0  0  0  0  0  0  0
   16.4348   31.6725   15.3396 C   0  0  0  0  0  0  0  0  0  0  0  0
   14.5420   32.5291   15.7396 C   0  0  0  0  0  3  0  0  0  0  0  0
   21.2226   30.8481   14.4251 C   0  0  2  0  0  0  0  0  0  0  0  0
   18.7744   31.0392   14.7087 N   0  0  0  0  0  2  0  0  0  0  0  0
   21.2281   31.6421   13.1009 C   0  0  0  0  0  3  0  0  0  0  0  0
   23.3719   30.4063   13.2878 C   0  0  0  0  0  2  0  0  0  0  0  0
   15.2511   31.4312   15.8454 O   0  0  0  0  0  0  0  0  0  0  0  0
  1 10  1  0
  3 14  1  0
  4 11  2  0
  6 15  2  0
  8  3  2  0
  9  1  1  0
 11 18  1  0
 11 19  1  0
 12  2  1  0
 13  6  1  0
 13 14  2  0
 14 20  1  0
 15 20  1  0
 16  5  1  0
 16  9  1  1
 16 12  1  0
 17  3  1  0
 17 12  1  0
 18  7  1  0
 18 16  1  0
 19  5  1  0
M  RAD  8   1   3   2   2   5   3   6   2   7   2   9   3  10   2  12   2
M  RAD  4  15   2  17   2  18   2  19   3
M  END
$$$$
/tmp/tmpmea79hq6
     RDKit          3D

 20 22  0  0  1  0  0  0  0  0999 V2000
   17.4154   29.5034   11.2373 C   0  0  0  0  0  3  0  0  0  0  0  0
   18.6918   29.6729   12.0130 C   0  0  0  0  0  3  0  0  0  0  0  0
   15.9035   31.8830   16.2330 N   0  0  0  0  0  2  0  0  0  0  0  0
   17.4032   29.6187    9.9114 C   0  0  0  0  0  2  0  0  0  0  0  0
   16.8872   34.3211   16.8168 C   0  0  0  0  0  3  0  0  0  0  0  0
   19.6483   28.5221   11.8400 C   0  0  0  0  0  0  0  0  0  0  0  0
   17.9113   33.4955   17.1723 N   0  0  0  0  0  0  0  0  0  0  0  0
   19.2564   27.4186   11.3738 O   0  0  0  0  0  0  0  0  0  0  0  0
   21.6560   30.2502   15.1988 N   0  0  0  0  0  2  0  0  0  0  0  0
   16.3954   30.5184   16.3333 C   0  0  0  0  0  2  0  0  0  0  0  0
   21.4600   29.8557   12.8407 C   0  0  0  0  0  2  0  0  0  0  0  0
   16.7082   32.9856   16.6416 C   0  0  0  0  0  0  0  0  0  0  0  0
   18.4494   29.9258   13.4776 C   0  0  0  0  0  0  0  0  0  0  0  0
   17.2177   30.0363   14.0188 N   0  0  0  0  0  0  0  0  0  0  0  0
   17.4624   30.2764   15.3209 C   0  0  0  0  0  0  0  0  0  0  0  0
   18.8171   30.3302   15.5683 C   0  0  0  0  0  3  0  0  0  0  0  0
   16.1316   34.7574   18.0544 C   0  0  0  0  0  1  0  0  0  0  0  0
   20.9749   28.6539   12.2530 O   0  0  0  0  0  0  0  0  0  0  0  0
   20.8606   30.0604   14.1976 C   0  0  0  0  0  0  0  0  0  0  0  0
   19.4335   30.1054   14.3925 N   0  0  0  0  0  0  0  0  0  0  0  0
  2  1  1  0
  2 13  1  0
  3 12  1  0
  4  1  2  0
  5 17  1  0
  6 18  1  0
  6  2  1  0
  7  5  1  0
  8  6  2  0
 10  3  1  0
 11 19  1  0
 12  7  2  0
 12  5  1  0
 13 14  2  0
 13 20  1  0
 14 15  1  0
 15 16  2  0
 15 10  1  0
 18 11  1  0
 19 20  1  0
 19  9  2  0
 20 16  1  0
M  RAD  8   1   2   2   2   3   2   4   3   5   2   9   2  10   3  11   3
M  RAD  2  16   2  17   2
M  END
$$$$

     RDKit          3D

 14 14  0  0  0  0  0  0  0  0999 V2000
   17.9507   30.0255   12.8514 C   0  0  0  0  0  0  0  0  0  0  0  0
   15.9141   28.6416   13.2277 C   0  0  0  0  0  1  0  0  0  0  0  0
   16.7213   29.4493   12.2252 C   0  0  0  0  0  3  0  0  0  0  0  0
   18.1775   31.2598   12.7402 O   0  0  0  0  0  0  0  0  0  0  0  0
   20.9630   28.5261   14.5724 C   0  0  0  0  0  3  0  0  0  0  0  0
   22.0845   28.0939   12.3886 C   0  0  0  0  0  1  0  0  0  0  0  0
   18.8716   29.1803   13.5481 N   0  0  0  0  0  2  0  0  0  0  0  0
   20.1396   29.5300   16.5778 N   0  0  0  0  0  2  0  0  0  0  0  0
   20.0816   29.6884   14.1771 C   0  0  0  0  0  3  0  0  0  0  0  0
   19.7352   30.3915   15.4767 C   0  0  0  0  0  2  0  0  0  0  0  0
   17.8030   27.4996   11.3052 O   0  0  0  0  0  1  0  0  0  0  0  0
   21.2167   28.7087   16.0502 C   0  0  0  0  0  2  0  0  0  0  0  0
   17.0479   28.6296   10.9809 C   0  0  0  0  0  2  0  0  0  0  0  0
   22.2803   28.5648   13.8174 C   0  0  0  0  0  2  0  0  0  0  0  0
  1  7  1  0
  3  1  1  0
  3  2  1  0
  4  1  2  0
  5 14  1  0
  5 12  1  0
  6 14  1  0
  8 12  1  0
  9  7  1  0
  9 10  1  0
  9  5  1  0
 10  8  1  0
 11 13  1  0
 13  3  1  0
M  RAD  8   2   2   3   2   5   2   6   2   7   2   8   2   9   2  10   3
M  RAD  4  11   2  12   3  13   3  14   3
M  END
$$$$
/tmp/tmph6owiv28
     RDKit          3D

 20 21  0  0  1  0  0  0  0  0999 V2000
   19.4978   31.0664   14.2099 C   0  0  2  0  0  0  0  0  0  0  0  0
   21.1636   28.7676   11.9348 O   0  0  0  0  0  1  0  0  0  0  0  0
   19.3546   29.7147   14.9446 C   0  0  0  0  0  3  0  0  0  0  0  0
   19.9096   31.5462   11.8691 O   0  0  0  0  0  1  0  0  0  0  0  0
   16.2622   33.3051   16.3145 O   0  0  0  0  0  1  0  0  0  0  0  0
   22.2264   28.8518   14.6743 O   0  0  0  0  0  1  0  0  0  0  0  0
   21.4971   33.1740   16.8220 C   0  0  0  0  0  1  0  0  0  0  0  0
   18.9845   32.7915   15.6403 O   0  0  0  0  0  0  0  0  0  0  0  0
   16.6622   32.1988   15.5653 C   0  0  0  0  0  2  0  0  0  0  0  0
   21.1751   27.9408   14.5587 C   0  0  0  0  0  2  0  0  0  0  0  0
   17.9085   32.5393   14.7677 C   0  0  0  0  0  3  0  0  0  0  0  0
   22.5342   31.8433   15.0364 C   0  0  0  0  0  1  0  0  0  0  0  0
   18.2058   31.4829   13.8766 O   0  0  0  0  0  0  0  0  0  0  0  0
   20.3148   30.7660   12.9552 C   0  0  0  0  0  3  0  0  0  0  0  0
   20.0946   29.2964   12.6642 C   0  0  0  0  0  3  0  0  0  0  0  0
   20.0702   32.2489   14.9674 C   0  0  0  0  0  3  0  0  0  0  0  0
   19.8883   29.6818   16.2375 O   0  0  0  0  0  1  0  0  0  0  0  0
   19.8990   28.6130   14.0222 C   0  0  2  0  0  0  0  0  0  0  0  0
   21.2826   32.0061   15.8757 C   0  0  0  0  0  3  0  0  0  0  0  0
   18.8351   27.5444   13.8735 C   0  0  0  0  0  1  0  0  0  0  0  0
  1 13  1  6
  1  3  1  0
  1 16  1  0
  3 17  1  0
  9  5  1  0
 10  6  1  0
 11  9  1  0
 11  8  1  0
 12 19  1  0
 13 11  1  0
 14  4  1  0
 14 15  1  0
 14  1  1  0
 15  2  1  0
 15 18  1  0
 16 19  1  0
 16  8  1  0
 18 20  1  6
 18 10  1  0
 18  3  1  0
 19  7  1  0
M  RAD  8   2   2   3   2   4   2   5   2   6   2   7   2   9   3  10   3
M  RAD  8  11   2  12   2  14   2  15   2  16   2  17   2  19   2  20   2
M  END
$$$$

     RDKit          3D

 15 16  0  0  0  0  0  0  0  0999 V2000
   18.3647   29.8932   12.3487 C   0  0  0  0  0  2  0  0  0  0  0  0
   23.4335   27.8390   11.7911 O   0  0  0  0  0  0  0  0  0  0  0  0
   18.7761   29.4771   13.7462 C   0  0  1  0  0  0  0  0  0  0  0  0
   17.8219   28.5440   14.4736 C   0  0  0  0  0  1  0  0  0  0  0  0
   21.1656   28.6777   13.5525 C   0  0  0  0  0  2  0  0  0  0  0  0
   20.2236   29.7113   14.1908 C   0  0  1  0  0  0  0  0  0  0  0  0
   19.4790   32.6301   12.5871 O   0  0  0  0  0  1  0  0  0  0  0  0
   21.6093   30.1000   16.1375 O   0  0  0  0  0  1  0  0  0  0  0  0
   18.1966   30.8387   13.5281 C   0  0  0  0  0  3  0  0  0  0  0  0
   20.5891   31.0085   13.7749 O   0  0  0  0  0  0  0  0  0  0  0  0
   20.3572   29.6360   15.7274 C   0  0  0  0  0  3  0  0  0  0  0  0
   21.3239   28.8591   12.0482 C   0  0  0  0  0  2  0  0  0  0  0  0
   20.1725   28.3323   16.1963 O   0  0  0  0  0  1  0  0  0  0  0  0
   22.2483   27.8246   11.5005 C   0  0  0  0  0  3  0  0  0  0  0  0
   19.3988   31.7584   13.6740 C   0  0  0  0  0  3  0  0  0  0  0  0
  1  3  1  0
  3  9  1  0
  3  4  1  1
  3  6  1  0
  6  5  1  6
  6 11  1  0
  9  1  1  0
 10  6  1  0
 11  8  1  0
 11 13  1  0
 12  5  1  0
 14 12  1  0
 14  2  2  0
 15  7  1  0
 15  9  1  0
 15 10  1  0
M  RAD  8   1   3   4   2   5   3   7   2   8   2   9   2  11   2  12   3
M  RAD  3  13   2  14   2  15   2
M  END
$$$$
/tmp/tmpc0coyvlf
     RDKit          3D

 20 22  0  0  1  0  0  0  0  0999 V2000
   19.9205   28.1192   15.0835 C   0  0  0  0  0  2  0  0  0  0  0  0
   19.0737   35.9680   17.0309 C   0  0  0  0  0  1  0  0  0  0  0  0
   17.3367   29.7817   15.1209 C   0  0  0  0  0  2  0  0  0  0  0  0
   17.4908   28.4077   14.6425 N   0  0  0  0  0  2  0  0  0  0  0  0
   17.5377   30.7619   13.9663 C   0  0  0  0  0  3  0  0  0  0  0  0
   18.8078   28.2224   14.0255 C   0  0  0  0  0  3  0  0  0  0  0  0
   19.9398   30.2195   10.2802 O   0  0  0  0  0  1  0  0  0  0  0  0
   18.2756   32.6590   15.4675 C   0  0  0  0  0  2  0  0  0  0  0  0
   17.9546   34.0793   15.8824 C   0  0  0  0  0  3  0  0  0  0  0  0
   17.3724   34.0718   17.2811 C   0  0  0  0  0  3  0  0  0  0  0  0
   18.8344   34.4650   17.0534 C   0  0  0  0  0  3  0  0  0  0  0  0
   17.2794   32.1971   14.4132 C   0  0  0  0  0  2  0  0  0  0  0  0
   21.0533   29.1171   14.8489 C   0  0  0  0  0  2  0  0  0  0  0  0
   18.8897   30.6286   13.4291 N   0  0  0  0  0  2  0  0  0  0  0  0
   20.5233   27.8645   11.6335 O   0  0  0  0  0  1  0  0  0  0  0  0
   19.0703   29.2662   12.9145 C   0  0  0  0  0  3  0  0  0  0  0  0
   21.5810   29.0295   13.4143 C   0  0  0  0  0  2  0  0  0  0  0  0
   20.8332   30.2002   11.3540 C   0  0  0  0  0  2  0  0  0  0  0  0
   16.5386   35.1819   17.4445 O   0  0  0  0  0  1  0  0  0  0  0  0
   20.4881   29.0757   12.3281 C   0  0  1  0  0  0  0  0  0  0  0  0
  4  3  1  0
  5 12  1  0
  5  3  1  0
  6  1  1  0
  6  4  1  0
  7 18  1  0
  9  8  1  0
  9 11  1  0
 10 19  1  0
 10  9  1  0
 10 11  1  0
 11  2  1  0
 12  8  1  0
 13  1  1  0
 14  5  1  0
 16 14  1  0
 16  6  1  0
 17 20  1  0
 17 13  1  0
 18 20  1  0
 20 15  1  6
 20 16  1  0
M  RAD  8   1   3   2   2   3   3   4   2   5   2   6   2   7   2   8   3
M  RAD  8   9   2  10   2  11   2  12   3  13   3  14   2  15   2  16   2
M  RAD  3  17   3  18   3  19   2
M  END
$$$$
/tmp/tmpv47kcok5
     RDKit          3D

 20 19  0  0  1  0  0  0  0  0999 V2000
   17.7421   34.9889   17.0677 C   0  0  0  0  0  2  0  0  0  0  0  0
   19.0179   31.6658   11.6975 O   0  0  0  0  0  1  0  0  0  0  0  0
   18.9083   29.5123   14.1269 C   0  0  1  0  0  0  0  0  0  0  0  0
   17.3630   29.3861   13.1210 S   0  0  0  0  0  0  0  0  0  0  0  0
   15.6870   32.0567   16.3981 O   0  0  0  0  0  1  0  0  0  0  0  0
   17.7155   27.7891   12.3203 C   0  0  0  0  0  1  0  0  0  0  0  0
   19.9567   31.4155   12.6909 C   0  0  0  0  0  0  0  0  0  0  0  0
   16.8228   32.0552   17.0733 O   0  0  0  0  0  0  0  0  0  0  0  0
   18.6398   30.4419   15.3288 C   0  0  0  0  0  2  0  0  0  0  0  0
   18.0251   31.7907   14.9717 C   0  0  0  0  0  2  0  0  0  0  0  0
   20.7176   29.0210   12.3069 C   0  0  0  0  0  3  0  0  0  0  0  0
   16.5427   34.9819   17.9960 C   0  0  0  0  0  1  0  0  0  0  0  0
   19.2250   28.1845   14.6687 N   0  0  0  0  0  2  0  0  0  0  0  0
   17.8044   32.6184   16.2317 C   0  0  0  0  0  3  0  0  0  0  0  0
   20.3506   28.2629   15.4244 O   0  0  0  0  0  1  0  0  0  0  0  0
   20.1027   29.0766   11.0544 O   0  0  0  0  0  1  0  0  0  0  0  0
   22.2065   29.2628   12.1539 C   0  0  0  0  0  1  0  0  0  0  0  0
   20.1082   30.0395   13.2816 C   0  0  0  0  0  3  0  0  0  0  0  0
   20.6974   32.3487   13.0954 O   0  0  0  0  0  0  0  0  0  0  0  0
   17.5035   34.0735   15.8778 C   0  0  0  0  0  2  0  0  0  0  0  0
  1 12  1  0
  3  9  1  1
  3 13  1  0
  4  3  1  0
  5  8  1  0
  6  4  1  0
  7  2  1  0
 10  9  1  0
 11 18  1  0
 11 17  1  0
 13 15  1  0
 14 10  1  0
 14 20  1  0
 14  8  1  0
 16 11  1  0
 18  7  1  0
 18  3  1  0
 19  7  2  0
 20  1  1  0
M  RAD  8   1   3   2   2   5   2   6   2   9   3  10   3  11   2  12   2
M  RAD  7  13   2  14   2  15   2  16   2  17   2  18   2  20   3
M  END
$$$$
/tmp/tmp_z46qtn0
     RDKit          3D

 20 21  0  0  1  0  0  0  0  0999 V2000
   17.6466   33.0573   15.6972 C   0  0  0  0  0  3  0  0  0  0  0  0
   20.0035   32.3191   16.2712 C   0  0  0  0  0  2  0  0  0  0  0  0
   18.6671   28.9389   14.3671 N   0  0  0  0  0  1  0  0  0  0  0  0
   21.9651   29.2955   12.7982 O   0  0  0  0  0  1  0  0  0  0  0  0
   15.7276   31.9965   14.5640 C   0  0  0  0  0  2  0  0  0  0  0  0
   13.5353   32.6074   15.8648 C   0  0  0  0  0  1  0  0  0  0  0  0
   18.1488   32.8756   17.7325 O   0  0  0  0  0  0  0  0  0  0  0  0
   19.8595   29.2508   11.6955 C   0  0  0  0  0  2  0  0  0  0  0  0
   15.0097   32.4016   15.8779 C   0  0  0  0  0  0  0  0  0  0  0  0
   15.7056   32.6518   17.0157 C   0  0  0  0  0  3  0  0  0  0  0  0
   20.3813   29.9714   10.6184 O   0  0  0  0  0  1  0  0  0  0  0  0
   21.1672   31.4873   14.5857 C   0  0  0  0  0  3  0  0  0  0  0  0
   20.6176   32.6751   15.0687 O   0  0  0  0  0  0  0  0  0  0  0  0
   17.1548   32.3435   16.9031 C   0  0  0  0  0  3  0  0  0  0  0  0
   17.2946   32.0563   14.6172 C   0  0  0  0  0  2  0  0  0  0  0  0
   22.5190   31.6856   14.3030 O   0  0  0  0  0  1  0  0  0  0  0  0
   20.4297   31.0641   13.3186 C   0  0  0  0  0  2  0  0  0  0  0  0
   20.0788   28.6907   14.1125 C   0  0  0  0  0  2  0  0  0  0  0  0
   18.8595   33.2860   16.5756 C   0  0  0  0  0  3  0  0  0  0  0  0
   20.6097   29.5775   12.9840 C   0  0  2  0  0  0  0  0  0  0  0  0
  1 15  1  0
  1 19  1  0
  1 14  1  0
  5  9  1  0
  8 20  1  0
  9 10  2  0
  9  6  1  0
 11  8  1  0
 12 16  1  0
 12 17  1  0
 12 13  1  0
 13  2  1  0
 14  7  1  0
 14 10  1  0
 15  5  1  0
 17 20  1  0
 18  3  1  0
 19  2  1  0
 19  7  1  0
 20  4  1  6
 20 18  1  0
M  RAD  8   1   2   2   3   3   3   4   2   5   3   6   2   8   3  10   2
M  RAD  8  11   2  12   2  14   2  15   3  16   2  17   3  18   3  19   2
M  END
$$$$
/tmp/tmph14uj5l9
     RDKit          3D

 20 21  0  0  1  0  0  0  0  0999 V2000
   19.6435   27.6377   15.0483 O   0  0  0  0  0  0  0  0  0  0  0  0
   21.4421   30.5689   13.7745 C   0  0  0  0  0  0  0  0  0  0  0  0
   21.0806   29.3109   14.3488 N   0  0  0  0  0  2  0  0  0  0  0  0
   18.1480   29.2915   12.0158 C   0  0  0  0  0  0  0  0  0  0  0  0
   18.1748   32.9002   16.2041 C   0  0  0  0  0  3  0  0  0  0  0  0
   18.3449   30.3019   13.0928 C   0  0  0  0  0  2  0  0  0  0  0  0
   16.7769   30.9869   15.6715 C   0  0  0  0  0  2  0  0  0  0  0  0
   16.3857   35.5127   16.0015 C   0  0  0  0  0  2  0  0  0  0  0  0
   19.7614   28.8134   14.6161 C   0  0  0  0  0  0  0  0  0  0  0  0
   16.9037   28.7031   11.8337 O   0  0  0  0  0  1  0  0  0  0  0  0
   18.1198   33.9898   15.1416 C   0  0  0  0  0  2  0  0  0  0  0  0
   19.1163   28.9515   11.2878 O   0  0  0  0  0  0  0  0  0  0  0  0
   18.5062   29.6262   14.4535 C   0  0  0  0  0  3  0  0  0  0  0  0
   18.2153   30.5220   15.6611 C   0  0  0  0  0  3  0  0  0  0  0  0
   20.2666   32.6120   12.8433 O   0  0  0  0  0  0  0  0  0  0  0  0
   22.4183   31.4187   13.3816 N   0  0  0  0  0  0  0  0  0  0  0  0
   21.1241   31.7739   13.2242 C   0  0  0  0  0  0  0  0  0  0  0  0
   16.7953   32.2980   16.4238 C   0  0  0  0  0  2  0  0  0  0  0  0
   17.6677   35.2936   15.7192 C   0  0  0  0  0  3  0  0  0  0  0  0
   19.0698   31.7753   15.7136 C   0  0  0  0  0  2  0  0  0  0  0  0
  2  3  1  0
  3  9  1  0
  4 10  1  0
  4  6  1  0
  5 18  1  0
  5 11  1  0
  7 18  1  0
  9  1  2  0
 11 19  1  0
 12  4  2  0
 13  6  1  0
 13  9  1  0
 14 13  1  0
 14  7  1  0
 14 20  1  0
 15 17  2  0
 16  2  2  0
 17 16  1  0
 17  2  1  0
 19  8  2  0
 20  5  1  0
M  RAD  8   3   2   5   2   6   3   7   3   8   3  10   2  11   3  13   2
M  RAD  4  14   2  18   3  19   2  20   3
M  END
$$$$

     RDKit          3D

 19 19  0  0  0  0  0  0  0  0999 V2000
   15.3953   32.8778   15.8319 C   0  0  0  0  0  3  0  0  0  0  0  0
   19.5632   30.2753   14.4990 C   0  0  0  0  0  3  0  0  0  0  0  0
   18.5702   32.1666   13.1803 C   0  0  0  0  0  2  0  0  0  0  0  0
   22.8147   28.1611   15.9109 C   0  0  0  0  0  1  0  0  0  0  0  0
   20.0190   28.8130   14.4251 C   0  0  0  0  0  3  0  0  0  0  0  0
   21.5986   27.2700   13.4578 O   0  0  0  0  0  1  0  0  0  0  0  0
   20.4032   31.0644   15.3908 N   0  0  0  0  0  1  0  0  0  0  0  0
   16.2659   33.4629   14.9055 C   0  0  0  0  0  0  0  0  0  0  0  0
   21.4218   28.6036   13.8335 C   0  0  0  0  0  3  0  0  0  0  0  0
   17.1057   31.7808   13.2889 C   0  0  0  0  0  2  0  0  0  0  0  0
   17.1994   34.8463   16.6636 C   0  0  0  0  0  3  0  0  0  0  0  0
   19.4395   30.9224   13.1161 C   0  0  0  0  0  3  0  0  0  0  0  0
   22.5729   29.0809   14.7243 C   0  0  0  0  0  2  0  0  0  0  0  0
   17.1722   34.4448   15.3239 C   0  0  0  0  0  3  0  0  0  0  0  0
   20.6970   31.2619   12.6124 O   0  0  0  0  0  1  0  0  0  0  0  0
   19.8845   28.1913   15.6689 O   0  0  0  0  0  1  0  0  0  0  0  0
   16.2451   33.0188   13.4816 C   0  0  0  0  0  2  0  0  0  0  0  0
   16.3242   34.2649   17.5865 C   0  0  0  0  0  3  0  0  0  0  0  0
   15.4225   33.2801   17.1709 C   0  0  0  0  0  3  0  0  0  0  0  0
  1 19  2  0
  2  7  1  0
  4 13  1  0
  5 16  1  0
  5  2  1  0
  8 14  2  0
  8  1  1  0
  9  6  1  0
  9  5  1  0
 10 17  1  0
 10  3  1  0
 11 18  2  0
 12 15  1  0
 12  2  1  0
 12  3  1  0
 13  9  1  0
 14 11  1  0
 17  8  1  0
 19 18  1  0
M  RAD  8   1   2   2   2   3   3   4   2   5   2   6   2   7   3   9   2
M  RAD  8  10   3  11   2  12   2  13   3  14   2  15   2  16   2  17   3
M  RAD  2  18   2  19   2
M  END
$$$$
/tmp/tmpanqog9pe
     RDKit          3D

 20 21  0  0  1  0  0  0  0  0999 V2000
   17.0732   28.5379   13.0275 O   0  0  0  0  0  0  0  0  0  0  0  0
   18.9216   30.4502   13.9792 C   0  0  0  0  0  3  0  0  0  0  0  0
   18.0481   30.9897   15.0769 C   0  0  0  0  0  0  0  0  0  0  0  0
   19.1645   28.9561   14.0721 C   0  0  0  0  0  0  0  0  0  0  0  0
   16.4047   32.5853   15.7479 O   0  0  0  0  0  0  0  0  0  0  0  0
   20.1441   31.3311   13.6681 C   0  0  0  0  0  3  0  0  0  0  0  0
   18.2260   26.5709   13.6678 C   0  0  0  0  0  1  0  0  0  0  0  0
   20.7953   33.4439   13.0436 C   0  0  0  0  0  2  0  0  0  0  0  0
   17.1460   33.6866   16.1832 C   0  0  0  0  0  1  0  0  0  0  0  0
   21.4262   29.1590   15.2115 C   0  0  0  0  0  2  0  0  0  0  0  0
   21.1696   31.4503   14.8414 C   0  0  0  0  0  3  0  0  0  0  0  0
   20.2389   28.4167   14.6746 C   0  0  0  0  0  3  0  0  0  0  0  0
   19.6887   32.5887   13.1959 O   0  0  0  0  0  0  0  0  0  0  0  0
   18.1053   28.0557   13.5653 C   0  0  0  0  0  0  0  0  0  0  0  0
   21.2941   33.9141   14.4167 C   0  0  0  0  0  3  0  0  0  0  0  0
   17.1509   32.0185   14.7873 O   0  0  0  0  0  0  0  0  0  0  0  0
   21.0272   30.4042   15.8457 N   0  0  0  0  0  2  0  0  0  0  0  0
   20.5521   35.1664   14.8361 C   0  0  0  0  0  1  0  0  0  0  0  0
   21.1024   32.8308   15.4822 C   0  0  0  0  0  2  0  0  0  0  0  0
   18.1432   30.5449   16.2532 O   0  0  0  0  0  0  0  0  0  0  0  0
  1 14  2  0
  2  3  1  0
  3 20  2  0
  4  2  1  0
  4 12  2  0
  5  9  1  0
  6 13  1  0
  6  2  1  0
  6 11  1  0
  7 14  1  0
  8 15  1  0
 10 17  1  0
 11 17  1  0
 11 19  1  0
 12 10  1  0
 13  8  1  0
 14  4  1  0
 15 18  1  0
 15 19  1  0
 16  3  1  0
 16  5  1  0
M  RAD  8   2   2   6   2   7   2   8   3   9   2  10   3  11   2  12   2
M  RAD  4  15   2  17   2  18   2  19   3
M  END
$$$$
/tmp/tmpsny0avh3
     RDKit          3D

 20 22  0  0  1  0  0  0  0  0999 V2000
   20.2848   31.2289   12.8840 C   0  0  0  0  0  0  0  0  0  0  0  0
   19.9301   27.8158   14.2569 C   0  0  0  0  0  2  0  0  0  0  0  0
   19.3857   29.2414   14.3317 C   0  0  2  0  0  0  0  0  0  0  0  0
   18.0282   29.3275   13.6445 C   0  0  0  0  0  1  0  0  0  0  0  0
   20.4053   30.0152   13.6501 N   0  0  0  0  0  0  0  0  0  0  0  0
   19.3798   29.7199   15.8052 C   0  0  0  0  0  3  0  0  0  0  0  0
   18.3302   29.0031   16.6409 C   0  0  0  0  0  1  0  0  0  0  0  0
   14.4541   33.1474   14.9632 O   0  0  0  0  0  1  0  0  0  0  0  0
   21.6691   29.5015   14.1173 C   0  0  0  0  0  3  0  0  0  0  0  0
   18.5133   32.2972   14.3724 C   0  0  0  0  0  2  0  0  0  0  0  0
   19.2619   32.1993   13.1323 N   0  0  0  0  0  2  0  0  0  0  0  0
   15.3759   34.1338   15.3128 C   0  0  0  0  0  3  0  0  0  0  0  0
   14.9402   34.7851   16.4664 O   0  0  0  0  0  1  0  0  0  0  0  0
   20.7069   29.5436   16.4314 N   0  0  0  0  0  2  0  0  0  0  0  0
   17.8263   34.4952   15.2644 C   0  0  0  0  0  2  0  0  0  0  0  0
   21.1158   31.4543   11.9657 O   0  0  0  0  0  0  0  0  0  0  0  0
   21.4500   27.9902   14.1353 C   0  0  0  0  0  2  0  0  0  0  0  0
   17.4928   33.4088   14.2632 C   0  0  0  0  0  3  0  0  0  0  0  0
   21.8180   30.0013   15.5688 C   0  0  0  0  0  2  0  0  0  0  0  0
   16.7285   33.4974   15.5686 C   0  0  0  0  0  3  0  0  0  0  0  0
  1  5  1  0
  1 11  1  0
  2  3  1  0
  2 17  1  0
  3  4  1  6
  3  5  1  0
  3  6  1  0
  5  9  1  0
  6  7  1  0
  6 14  1  0
  9 17  1  0
  9 19  1  0
 11 10  1  0
 12 13  1  0
 12  8  1  0
 14 19  1  0
 15 20  1  0
 16  1  2  0
 18 10  1  0
 18 15  1  0
 18 20  1  0
 20 12  1  0
M  RAD  8   2   3   4   2   6   2   7   2   8   2   9   2  10   3  11   2
M  RAD  8  12   2  13   2  14   2  15   3  17   3  18   2  19   3  20   2
M  END
$$$$
/tmp/tmp3adlejij
     RDKit          3D

 20 22  0  0  1  0  0  0  0  0999 V2000
   16.9944   32.2541   15.9193 C   0  0  0  0  0  3  0  0  0  0  0  0
   17.2057   31.9852   14.4449 C   0  0  0  0  0  2  0  0  0  0  0  0
   19.9767   29.0619   13.9212 C   0  0  0  0  0  3  0  0  0  0  0  0
   20.6892   27.9097   13.5735 O   0  0  0  0  0  1  0  0  0  0  0  0
   19.8972   30.1602   10.9489 O   0  0  0  0  0  0  0  0  0  0  0  0
   16.1393   33.9233   17.5657 C   0  0  0  0  0  2  0  0  0  0  0  0
   20.9198   30.2579   14.1002 C   0  0  2  0  0  0  0  0  0  0  0  0
   17.4549   34.3149   18.2120 C   0  0  0  0  0  1  0  0  0  0  0  0
   17.8227   27.0546   12.6559 C   0  0  0  0  0  2  0  0  0  0  0  0
   19.2449   29.2310   11.4913 C   0  0  0  0  0  0  0  0  0  0  0  0
   17.6335   28.4479   13.2447 C   0  0  0  0  0  2  0  0  0  0  0  0
   22.0085   30.5192   13.0756 C   0  0  0  0  0  1  0  0  0  0  0  0
   17.9165   27.1730   11.1409 C   0  0  0  0  0  2  0  0  0  0  0  0
   19.2287   31.2491   15.6643 C   0  0  0  0  0  2  0  0  0  0  0  0
   16.3418   33.6132   16.0925 C   0  0  0  0  0  2  0  0  0  0  0  0
   18.8328   29.3465   12.9371 C   0  0  0  0  0  3  0  0  0  0  0  0
   21.4690   30.2959   15.4612 N   0  0  0  0  0  2  0  0  0  0  0  0
   18.9546   28.0750   10.7587 O   0  0  0  0  0  0  0  0  0  0  0  0
   18.3663   32.4408   15.3037 C   0  0  0  0  0  3  0  0  0  0  0  0
   20.5866   31.3797   14.9906 C   0  0  0  0  0  3  0  0  0  0  0  0
  1 15  1  0
  1  2  1  0
  3  4  1  0
  3  7  1  0
  6 15  1  0
  6  8  1  0
  7 12  1  6
  7 20  1  0
  7 17  1  0
  9 11  1  0
 10  5  2  0
 10 16  1  0
 13 18  1  0
 13  9  1  0
 16 11  1  0
 16  3  1  0
 18 10  1  0
 19 14  1  0
 19  1  1  0
 19  2  1  0
 20 14  1  0
 20 17  1  0
M  RAD  8   1   2   2   3   3   2   4   2   6   3   8   2   9   3  11   3
M  RAD  8  12   2  13   3  14   3  15   3  16   2  17   2  19   2  20   2
M  END
$$$$
/tmp/tmp8g3bx7wg
     RDKit          3D

 20 20  0  0  1  0  0  0  0  0999 V2000
   18.1912   29.9542   14.3200 C   0  0  0  0  0  0  0  0  0  0  0  0
   16.0525   34.0954   14.5563 C   0  0  0  0  0  1  0  0  0  0  0  0
   20.6726   31.4780   12.4455 C   0  0  0  0  0  0  0  0  0  0  0  0
   21.2725   28.2302   13.6836 N   0  0  0  0  0  2  0  0  0  0  0  0
   20.3930   28.3813   15.8700 N   0  0  0  0  0  2  0  0  0  0  0  0
   20.1032   32.2105   11.5959 O   0  0  0  0  0  0  0  0  0  0  0  0
   17.4760   30.9779   15.1099 C   0  0  0  0  0  3  0  0  0  0  0  0
   21.7823   31.9542   13.1341 O   0  0  0  0  0  1  0  0  0  0  0  0
   20.1429   30.1095   12.7147 C   0  0  0  0  0  3  0  0  0  0  0  0
   19.6969   29.9815   14.1720 C   0  0  0  0  0  3  0  0  0  0  0  0
   20.3575   28.7398   14.6300 C   0  0  0  0  0  0  0  0  0  0  0  0
   17.9626   27.9792   12.9304 N   0  0  0  0  0  2  0  0  0  0  0  0
   21.2291   29.0487   12.4847 C   0  0  0  0  0  2  0  0  0  0  0  0
   17.9879   31.9964   15.8126 C   0  0  0  0  0  0  0  0  0  0  0  0
   17.0419   32.9107   16.5172 C   0  0  0  0  0  2  0  0  0  0  0  0
   17.4252   29.0263   13.7346 C   0  0  0  0  0  3  0  0  0  0  0  0
   19.4505   32.2746   15.9218 C   0  0  0  0  0  1  0  0  0  0  0  0
   16.3430   35.1813   16.6470 O   0  0  0  0  0  1  0  0  0  0  0  0
   16.9197   34.2433   15.7926 C   0  0  0  0  0  3  0  0  0  0  0  0
   17.0783   27.0041   12.3230 C   0  0  0  0  0  1  0  0  0  0  0  0
  1  7  1  0
  3  8  1  0
  4 11  1  0
  6  3  2  0
  7 14  2  0
  9  3  1  0
  9 13  1  0
  9 10  1  0
 10  1  1  0
 10 11  1  0
 11  5  2  0
 12 20  1  0
 12 16  1  0
 13  4  1  0
 14 15  1  0
 15 19  1  0
 16  1  2  0
 17 14  1  0
 19  2  1  0
 19 18  1  0
M  RAD  8   2   2   4   2   5   2   7   2   8   2   9   2  10   2  12   2
M  RAD  7  13   3  15   3  16   2  17   2  18   2  19   2  20   2
M  END
$$$$
/tmp/tmpt_d2wcgr
     RDKit          3D

 20 21  0  0  1  0  0  0  0  0999 V2000
   20.8369   28.4146   14.5542 C   0  0  0  0  0  2  0  0  0  0  0  0
   22.2322   30.3051   13.8588 O   0  0  0  0  0  0  0  0  0  0  0  0
   17.1737   33.8881   16.5219 C   0  0  0  0  0  2  0  0  0  0  0  0
   18.3042   31.1285   15.6420 C   0  0  0  0  0  2  0  0  0  0  0  0
   20.0022   31.4219   13.8318 C   0  0  0  0  0  3  0  0  0  0  0  0
   19.2839   28.6390   16.3293 O   0  0  0  0  0  1  0  0  0  0  0  0
   19.2097   32.1426   12.9210 O   0  0  0  0  0  0  0  0  0  0  0  0
   21.1912   30.8505   13.1136 C   0  0  0  0  0  0  0  0  0  0  0  0
   17.0485   31.8286   15.0699 C   0  0  0  0  0  3  0  0  0  0  0  0
   16.2729   34.2367   18.6724 O   0  0  0  0  0  0  0  0  0  0  0  0
   18.4492   33.0401   13.6745 C   0  0  0  0  0  2  0  0  0  0  0  0
   20.0616   29.3866   15.4401 C   0  0  0  0  0  3  0  0  0  0  0  0
   21.2416   30.8260   11.8546 O   0  0  0  0  0  0  0  0  0  0  0  0
   17.1610   32.5069   13.8297 O   0  0  0  0  0  0  0  0  0  0  0  0
   22.2388   28.9315   14.2376 C   0  0  0  0  0  3  0  0  0  0  0  0
   16.3398   32.6813   16.1170 C   0  0  0  0  0  2  0  0  0  0  0  0
   18.3556   29.6355   13.7541 O   0  0  0  0  0  1  0  0  0  0  0  0
   22.8198   28.1312   13.1746 N   0  0  0  0  0  1  0  0  0  0  0  0
   16.4527   34.6890   17.5533 C   0  0  0  0  0  3  0  0  0  0  0  0
   19.1725   30.3655   14.6267 C   0  0  1  0  0  0  0  0  0  0  0  0
  1 12  1  0
  2 15  1  0
  3 16  1  0
  3 19  1  0
  5  8  1  0
  5 20  1  0
  7  5  1  0
  7 11  1  0
  8  2  1  0
  9  4  1  0
  9 16  1  0
 12  6  1  0
 13  8  2  0
 14 11  1  0
 14  9  1  0
 15 18  1  0
 15  1  1  0
 19 10  2  0
 20 17  1  6
 20 12  1  0
 20  4  1  0
M  RAD  8   1   3   3   3   4   3   5   2   6   2   9   2  11   3  12   2
M  RAD  5  15   2  16   3  17   2  18   3  19   2
M  END
$$$$
/tmp/tmp3_1623sg
     RDKit          3D

 20 20  0  0  1  0  0  0  0  0999 V2000
   17.8776   30.0605   16.3383 C   0  0  0  0  0  2  0  0  0  0  0  0
   17.9075   32.1995   17.5900 C   0  0  0  0  0  3  0  0  0  0  0  0
   18.2433   33.6724   17.5033 C   0  0  0  0  0  2  0  0  0  0  0  0
   20.2533   28.8001   10.2214 C   0  0  0  0  0  1  0  0  0  0  0  0
   20.1251   31.4489   13.8357 C   0  0  0  0  0  2  0  0  0  0  0  0
   20.5701   30.1401   14.4143 C   0  0  0  0  0  0  0  0  0  0  0  0
   17.4937   29.9251   13.8464 C   0  0  0  0  0  2  0  0  0  0  0  0
   17.6114   27.8925   15.2544 C   0  0  0  0  0  1  0  0  0  0  0  0
   22.3102   29.7675   10.9035 O   0  0  0  0  0  1  0  0  0  0  0  0
   18.1852   29.2835   15.0549 C   0  0  2  0  0  0  0  0  0  0  0  0
   20.3154   30.9970   11.3613 C   0  0  0  0  0  2  0  0  0  0  0  0
   19.6337   29.1484   14.8621 N   0  0  0  0  0  2  0  0  0  0  0  0
   16.9789   29.8099   11.5765 C   0  0  0  0  0  1  0  0  0  0  0  0
   17.7368   29.1629   12.6311 N   0  0  0  0  0  2  0  0  0  0  0  0
   18.2752   31.5267   16.2852 C   0  0  0  0  0  2  0  0  0  0  0  0
   20.8590   31.7891   12.5429 C   0  0  0  0  0  2  0  0  0  0  0  0
   20.9702   29.6288   11.2659 C   0  0  0  0  0  3  0  0  0  0  0  0
   16.0497   33.4516   18.6153 C   0  0  0  0  0  1  0  0  0  0  0  0
   16.8116   33.2127   17.3291 C   0  0  0  0  0  3  0  0  0  0  0  0
   21.8022   29.9070   14.5307 O   0  0  0  0  0  0  0  0  0  0  0  0
  1 15  1  0
  2 15  1  0
  2 19  1  0
  3  2  1  0
  3 19  1  0
  5  6  1  0
  5 16  1  0
  6 20  2  0
  7 10  1  0
  9 17  1  0
 10  8  1  1
 10  1  1  0
 10 12  1  0
 11 16  1  0
 12  6  1  0
 13 14  1  0
 14  7  1  0
 17  4  1  0
 17 11  1  0
 19 18  1  0
M  RAD  8   1   3   2   2   3   3   4   2   5   3   7   3   8   2   9   2
M  RAD  8  11   3  12   2  13   2  14   2  15   3  16   3  17   2  18   2
M  RAD  1  19   2
M  END
$$$$
/tmp/tmp1ouo27r8
     RDKit          3D

 20 22  0  0  1  0  0  0  0  0999 V2000
   22.0898   31.5889   13.6153 C   0  0  0  0  0  2  0  0  0  0  0  0
   17.1845   32.2114   16.1336 C   0  0  0  0  0  0  0  0  0  0  0  0
   18.9685   32.6697   14.9194 N   0  0  0  0  0  0  0  0  0  0  0  0
   22.9653   30.7197   14.2669 O   0  0  0  0  0  1  0  0  0  0  0  0
   17.3081   33.5821   16.0894 C   0  0  0  0  0  0  0  0  0  0  0  0
   18.1965   28.2172   15.6482 O   0  0  0  0  0  1  0  0  0  0  0  0
   16.4643   30.1499   15.3691 O   0  0  0  0  0  0  0  0  0  0  0  0
   20.2354   30.2097   13.1199 C   0  0  0  0  0  3  0  0  0  0  0  0
   19.9617   32.5363   13.8611 C   0  0  0  0  0  2  0  0  0  0  0  0
   16.1108   34.7569   16.5929 Cl  0  0  0  0  0  0  0  0  0  0  0  0
   19.6687   29.0168   13.9150 C   0  0  0  0  0  3  0  0  0  0  0  0
   18.1715   31.7057   15.4158 C   0  0  0  0  0  0  0  0  0  0  0  0
   18.7814   29.3710   15.1176 C   0  0  0  0  0  3  0  0  0  0  0  0
   16.0185   31.3206   16.0508 C   0  0  0  0  0  2  0  0  0  0  0  0
   19.3377   30.6448   11.9480 C   0  0  0  0  0  2  0  0  0  0  0  0
   19.0333   28.1024   13.0685 O   0  0  0  0  0  1  0  0  0  0  0  0
   17.7393   30.4437   14.7981 C   0  0  0  0  0  3  0  0  0  0  0  0
   18.4367   33.8471   15.3206 C   0  0  0  0  0  3  0  0  0  0  0  0
   20.0896   31.3500   11.0084 O   0  0  0  0  0  1  0  0  0  0  0  0
   20.7214   31.2910   14.0054 N   0  0  0  0  0  0  0  0  0  0  0  0
  2 14  1  0
  3 18  1  0
  3 12  1  0
  4  1  1  0
  5  2  1  0
  5 10  1  0
  7 14  1  0
  8 15  1  0
  8 20  1  0
  8 11  1  0
  9  3  1  0
 11 16  1  0
 11 13  1  0
 12  2  2  0
 13 17  1  0
 13  6  1  0
 17 12  1  0
 17  7  1  0
 18  5  2  0
 19 15  1  0
 20  9  1  0
 20  1  1  0
M  RAD  8   1   3   4   2   6   2   8   2   9   3  11   2  13   2  14   3
M  RAD  5  15   3  16   2  17   2  18   2  19   2
M  END
$$$$
/tmp/tmpkxyb_uqs
     RDKit          3D

 20 20  0  0  1  0  0  0  0  0999 V2000
   20.3556   28.2363   14.9013 N   0  0  0  0  0  2  0  0  0  0  0  0
   15.8448   35.9235   17.2693 C   0  0  0  0  0  1  0  0  0  0  0  0
   19.0165   30.1904   14.3608 C   0  0  0  0  0  3  0  0  0  0  0  0
   16.1926   31.1667   14.8494 O   0  0  0  0  0  0  0  0  0  0  0  0
   17.0073   28.4415   11.8683 C   0  0  0  0  0  2  0  0  0  0  0  0
   24.1709   28.0683   12.5138 O   0  0  0  0  0  0  0  0  0  0  0  0
   22.8319   28.4061   12.7840 C   0  0  0  0  0  3  0  0  0  0  0  0
   16.3280   34.2043   15.5269 C   0  0  0  0  0  2  0  0  0  0  0  0
   17.1867   32.1688   16.7403 C   0  0  0  0  0  2  0  0  0  0  0  0
   17.5365   33.5406   16.1764 C   0  0  0  0  0  2  0  0  0  0  0  0
   20.3220   29.4539   14.4622 C   0  0  0  0  0  0  0  0  0  0  0  0
   17.1088   31.1416   15.6565 C   0  0  0  0  0  0  0  0  0  0  0  0
   23.4256   27.1370   13.2570 C   0  0  0  0  0  2  0  0  0  0  0  0
   17.8703   28.6492   13.0989 C   0  0  0  0  0  2  0  0  0  0  0  0
   22.8013   29.4122   13.9186 C   0  0  0  0  0  2  0  0  0  0  0  0
   15.6969   29.1892   12.0173 C   0  0  0  0  0  1  0  0  0  0  0  0
   18.3440   29.9725   13.1360 O   0  0  0  0  0  0  0  0  0  0  0  0
   18.1284   30.0506   15.6030 C   0  0  0  0  0  2  0  0  0  0  0  0
   21.5070   30.0774   13.9604 N   0  0  0  0  0  2  0  0  0  0  0  0
   15.3291   34.6797   16.5707 C   0  0  0  0  0  2  0  0  0  0  0  0
  3 11  1  0
  3 18  1  0
  4 12  2  0
  5 14  1  0
  6 13  1  0
  6  7  1  0
  7 15  1  0
  8 10  1  0
  8 20  1  0
 10  9  1  0
 11  1  2  0
 12 18  1  0
 12  9  1  0
 13  7  1  0
 14 17  1  0
 15 19  1  0
 16  5  1  0
 17  3  1  0
 19 11  1  0
 20  2  1  0
M  RAD  8   1   2   2   2   3   2   5   3   7   2   8   3   9   3  10   3
M  RAD  7  13   3  14   3  15   3  16   2  18   3  19   2  20   3
M  END
$$$$

     RDKit          3D

 10 10  0  0  0  0  0  0  0  0999 V2000
   20.7434   29.6263   12.1358 C   0  0  0  0  0  3  0  0  0  0  0  0
   19.9801   28.7110   15.7692 C   0  0  0  0  0  3  0  0  0  0  0  0
   21.4302   31.8858   12.9893 C   0  0  0  0  0  1  0  0  0  0  0  0
   20.9530   28.7117   11.1024 O   0  0  0  0  0  1  0  0  0  0  0  0
   18.8026   28.5528   14.8309 C   0  0  0  0  0  2  0  0  0  0  0  0
   21.8642   31.2344   10.7534 O   0  0  0  0  0  1  0  0  0  0  0  0
   21.7866   30.7419   12.0571 C   0  0  0  0  0  3  0  0  0  0  0  0
   20.8348   28.8858   13.4623 C   0  0  0  0  0  2  0  0  0  0  0  0
   19.9165   29.5193   14.4899 C   0  0  0  0  0  3  0  0  0  0  0  0
   19.5956   29.5570   16.8836 N   0  0  0  0  0  1  0  0  0  0  0  0
  1  4  1  0
  1  8  1  0
  2 10  1  0
  5  9  1  0
  5  2  1  0
  6  7  1  0
  7  1  1  0
  7  3  1  0
  9  8  1  0
  9  2  1  0
M  RAD  8   1   2   2   2   3   2   4   2   5   3   6   2   7   2   8   3
M  RAD  2   9   2  10   3
M  END
$$$$
/tmp/tmp5iq1s6oh
     RDKit          3D

 20 22  0  0  1  0  0  0  0  0999 V2000
   16.0871   34.6910   14.5815 N   0  0  0  0  0  1  0  0  0  0  0  0
   17.4069   29.6347   11.1747 C   0  0  0  0  0  1  0  0  0  0  0  0
   16.1201   33.2758   14.8998 C   0  0  0  0  0  3  0  0  0  0  0  0
   17.5502   32.8648   15.2047 C   0  0  0  0  0  3  0  0  0  0  0  0
   19.3401   29.2508   15.6089 C   0  0  0  0  0  3  0  0  0  0  0  0
   18.5782   29.3980   12.0589 C   0  0  0  0  0  0  0  0  0  0  0  0
   17.3038   30.5929   14.9227 C   0  0  0  0  0  3  0  0  0  0  0  0
   18.5628   28.2146   16.1297 O   0  0  0  0  0  1  0  0  0  0  0  0
   16.9543   32.5480   13.8600 C   0  0  0  0  0  3  0  0  0  0  0  0
   18.3626   29.0224   13.3881 O   0  0  0  0  0  0  0  0  0  0  0  0
   22.9545   29.1099   14.5189 O   0  0  0  0  0  1  0  0  0  0  0  0
   21.7172   29.7357   14.6742 C   0  0  1  0  0  0  0  0  0  0  0  0
   20.7077   28.6965   15.1949 C   0  0  0  0  0  2  0  0  0  0  0  0
   20.9991   29.2321   12.3054 C   0  0  0  0  0  2  0  0  0  0  0  0
   17.5751   31.6119   15.9284 N   0  0  0  0  0  2  0  0  0  0  0  0
   21.8787   30.8646   15.6769 C   0  0  0  0  0  1  0  0  0  0  0  0
   16.6232   31.1833   13.8416 O   0  0  0  0  0  0  0  0  0  0  0  0
   19.7755   29.5204   11.5668 N   0  0  0  0  0  0  0  0  0  0  0  0
   18.6066   29.9366   14.4529 C   0  0  0  0  0  3  0  0  0  0  0  0
   21.2882   30.3249   13.3288 C   0  0  0  0  0  2  0  0  0  0  0  0
  2  6  1  0
  3  4  1  0
  3  1  1  0
  4 15  1  0
  5  8  1  0
  6 10  1  0
  7 17  1  0
  7 15  1  0
  9 17  1  0
  9  3  1  0
  9  4  1  0
 12 16  1  1
 12 13  1  0
 12 11  1  0
 13  5  1  0
 14 20  1  0
 18 14  1  0
 18  6  2  0
 19 10  1  0
 19  5  1  0
 19  7  1  0
 20 12  1  0
M  RAD  8   1   3   2   2   3   2   4   2   5   2   7   2   8   2   9   2
M  RAD  7  11   2  13   3  14   3  15   2  16   2  19   2  20   3
M  END
$$$$
/tmp/tmp7411c0a3
     RDKit          3D

 20 21  0  0  1  0  0  0  0  0999 V2000
   15.0023   34.3804   17.4506 C   0  0  0  0  0  3  0  0  0  0  0  0
   21.2547   31.0205   12.1305 C   0  0  0  0  0  2  0  0  0  0  0  0
   16.0356   34.9452   16.5711 N   0  0  0  0  0  2  0  0  0  0  0  0
   20.8797   28.7163   15.0428 C   0  0  0  0  0  3  0  0  0  0  0  0
   20.0042   28.9530   16.1766 N   0  0  0  0  0  1  0  0  0  0  0  0
   19.1727   30.9376   13.4732 C   0  0  0  0  0  0  0  0  0  0  0  0
   20.1533   28.7588   12.7091 C   0  0  0  0  0  3  0  0  0  0  0  0
   20.1291   27.9275   13.9819 C   0  0  0  0  0  2  0  0  0  0  0  0
   21.1456   28.1559   11.7049 C   0  0  0  0  0  2  0  0  0  0  0  0
   15.8895   32.5564   16.1159 C   0  0  0  0  0  2  0  0  0  0  0  0
   21.2766   30.0451   14.4191 C   0  0  0  0  0  2  0  0  0  0  0  0
   19.1822   31.9641   14.4242 O   0  0  0  0  0  0  0  0  0  0  0  0
   17.1497   31.8108   15.7140 C   0  0  0  0  0  2  0  0  0  0  0  0
   20.5514   31.1532   10.9303 O   0  0  0  0  0  1  0  0  0  0  0  0
   18.1130   30.6701   12.8404 O   0  0  0  0  0  0  0  0  0  0  0  0
   18.0055   32.6695   14.7967 C   0  0  0  0  0  2  0  0  0  0  0  0
   20.4538   30.2044   13.1506 C   0  0  1  0  0  0  0  0  0  0  0  0
   15.1175   34.9766   18.7685 N   0  0  0  0  0  1  0  0  0  0  0  0
   16.2055   33.6100   17.1615 C   0  0  0  0  0  3  0  0  0  0  0  0
   22.4382   28.1046   12.2332 O   0  0  0  0  0  1  0  0  0  0  0  0
  1 18  1  0
  3 19  1  0
  3  1  1  0
  4  5  1  0
  6 12  1  0
  7  9  1  0
  7 17  1  0
  7  8  1  0
  8  4  1  0
 11  4  1  0
 12 16  1  0
 13 10  1  0
 14  2  1  0
 15  6  2  0
 16 13  1  0
 17  2  1  6
 17  6  1  0
 17 11  1  0
 19 10  1  0
 19  1  1  0
 20  9  1  0
M  RAD  8   1   2   2   3   3   2   4   2   5   3   7   2   8   3   9   3
M  RAD  8  10   3  11   3  13   3  14   2  16   3  18   3  19   2  20   2
M  END
$$$$
/tmp/tmpk3tydbr3
     RDKit          3D

 20 19  0  0  1  0  0  0  0  0999 V2000
   20.5864   30.9093   11.9803 C   0  0  0  0  0  3  0  0  0  0  0  0
   17.8722   30.0851   16.7723 O   0  0  0  0  0  0  0  0  0  0  0  0
   20.4533   30.0215   13.1759 C   0  0  0  0  0  3  0  0  0  0  0  0
   15.0025   33.6843   15.8921 O   0  0  0  0  0  1  0  0  0  0  0  0
   16.5535   35.3547   16.1360 O   0  0  0  0  0  0  0  0  0  0  0  0
   18.6148   29.1162   14.7597 C   0  0  0  0  0  3  0  0  0  0  0  0
   23.5815   30.1295   13.6999 C   0  0  0  0  0  2  0  0  0  0  0  0
   19.0634   31.6174   15.4448 C   0  0  0  0  0  2  0  0  0  0  0  0
   21.4757   28.8922   13.0961 C   0  0  0  0  0  2  0  0  0  0  0  0
   18.4740   30.2651   15.7251 C   0  0  0  0  0  0  0  0  0  0  0  0
   17.1284   28.3812   12.1261 C   0  0  0  0  0  1  0  0  0  0  0  0
   23.1644   31.4950   14.2106 C   0  0  0  0  0  1  0  0  0  0  0  0
   17.3658   33.1406   16.4620 C   0  0  0  0  0  2  0  0  0  0  0  0
   22.5770   29.0736   14.1320 C   0  0  0  0  0  2  0  0  0  0  0  0
   17.9782   32.6445   15.1644 C   0  0  0  0  0  2  0  0  0  0  0  0
   19.0043   29.5204   13.3243 C   0  0  0  0  0  3  0  0  0  0  0  0
   18.6333   28.4457   12.3036 C   0  0  0  0  0  2  0  0  0  0  0  0
   20.0026   31.9801   11.9384 O   0  0  0  0  0  0  0  0  0  0  0  0
   19.4854   28.0100   15.3389 C   0  0  0  0  0  1  0  0  0  0  0  0
   16.2902   34.1246   16.1673 C   0  0  0  0  0  0  0  0  0  0  0  0
  3  1  1  0
  3  9  1  0
  3 16  1  0
  5 20  2  0
  6 19  1  0
  6 10  1  0
  7 12  1  0
  8 10  1  0
  8 15  1  0
  9 14  1  0
 10  2  2  0
 14  7  1  0
 15 13  1  0
 16 17  1  0
 16  6  1  0
 17 11  1  0
 18  1  2  0
 20 13  1  0
 20  4  1  0
M  RAD  8   1   2   3   2   4   2   6   2   7   3   8   3   9   3  11   2
M  RAD  7  12   2  13   3  14   3  15   3  16   2  17   3  19   2
M  END
$$$$
/tmp/tmp5boux698
     RDKit          3D

 20 20  0  0  1  0  0  0  0  0999 V2000
   18.9469   29.8705   17.9616 C   0  0  0  0  0  1  0  0  0  0  0  0
   18.6703   33.5291   16.1418 S   0  0  0  0  0  0  0  0  0  0  0  0
   20.7173   29.0410   13.6777 S   0  0  0  0  0  0  0  0  0  0  0  0
   16.9161   33.4925   16.6150 C   0  0  0  0  0  2  0  0  0  0  0  0
   19.9582   31.4545   12.5843 C   0  0  0  0  0  0  0  0  0  0  0  0
   19.6900   30.5304   15.7653 O   0  0  0  0  0  0  0  0  0  0  0  0
   18.8591   32.0635   13.1774 O   0  0  0  0  0  1  0  0  0  0  0  0
   20.9786   32.1395   12.3143 O   0  0  0  0  0  0  0  0  0  0  0  0
   19.4796   29.4411   14.9130 C   0  0  0  0  0  0  0  0  0  0  0  0
   18.8012   30.8679   16.8268 C   0  0  0  0  0  3  0  0  0  0  0  0
   15.9558   29.4222    9.5213 C   0  0  0  0  0  1  0  0  0  0  0  0
   18.0384   30.1573   10.6621 C   0  0  0  0  0  2  0  0  0  0  0  0
   17.5201   27.7826   10.5261 C   0  0  0  0  0  2  0  0  0  0  0  0
   18.6335   27.9805   11.5267 C   0  0  0  0  0  2  0  0  0  0  0  0
   19.1349   32.2527   17.3519 C   0  0  0  0  0  2  0  0  0  0  0  0
   18.5736   29.4487   11.8982 C   0  0  0  0  0  3  0  0  0  0  0  0
   18.4246   28.7007   15.0239 N   0  0  0  0  0  2  0  0  0  0  0  0
   17.4126   29.0941    9.7769 C   0  0  0  0  0  3  0  0  0  0  0  0
   19.9559   29.9827   12.2980 C   0  0  0  0  0  3  0  0  0  0  0  0
   16.7443   34.1413   17.8376 O   0  0  0  0  0  1  0  0  0  0  0  0
  2  4  1  0
  2 15  1  0
  3  9  1  0
  4 20  1  0
  6  9  1  0
  6 10  1  0
  7  5  1  0
  8  5  2  0
  9 17  2  0
 10  1  1  0
 10 15  1  0
 12 18  1  0
 12 16  1  0
 13 14  1  0
 16 19  1  0
 16 14  1  0
 18 11  1  0
 18 13  1  0
 19  5  1  0
 19  3  1  0
M  RAD  8   1   2   4   3   7   2  10   2  11   2  12   3  13   3  14   3
M  RAD  6  15   3  16   2  17   2  18   2  19   2  20   2
M  END
$$$$

     RDKit          3D

 16 18  0  0  0  0  0  0  0  0999 V2000
   16.8386   28.8811   10.7796 C   0  0  0  0  0  1  0  0  0  0  0  0
   18.2708   33.0231   16.4531 C   0  0  0  0  0  2  0  0  0  0  0  0
   15.5845   34.1345   15.3049 C   0  0  0  0  0  1  0  0  0  0  0  0
   20.4941   28.9153   16.0793 O   0  0  0  0  0  1  0  0  0  0  0  0
   19.0078   28.6303   11.9978 C   0  0  0  0  0  2  0  0  0  0  0  0
   19.9301   29.2150   12.9819 N   0  0  0  0  0  2  0  0  0  0  0  0
   18.1691   30.5511   13.9295 C   0  0  0  0  0  3  0  0  0  0  0  0
   18.9269   30.7216   16.1989 C   0  0  0  0  0  3  0  0  0  0  0  0
   19.1555   29.4536   14.1924 C   0  0  0  0  0  3  0  0  0  0  0  0
   17.7029   30.9573   15.3073 C   0  0  0  0  0  3  0  0  0  0  0  0
   19.9614   29.9791   15.3520 C   0  0  0  0  0  3  0  0  0  0  0  0
   17.4197   32.4488   15.3358 C   0  0  0  0  0  3  0  0  0  0  0  0
   15.9450   32.6920   15.6052 C   0  0  0  0  0  2  0  0  0  0  0  0
   17.1123   30.0130   12.9841 C   0  0  0  0  0  2  0  0  0  0  0  0
   19.4513   32.0885   16.5865 C   0  0  0  0  0  2  0  0  0  0  0  0
   17.8240   29.5746   11.6958 C   0  0  0  0  0  3  0  0  0  0  0  0
  1 16  1  0
  5  6  1  0
  7 14  1  0
  7  9  1  0
  7 10  1  0
  8 15  1  0
  9  6  1  0
  9 11  1  0
 10 12  1  0
 10  8  1  0
 11  8  1  0
 11  4  1  0
 12 13  1  0
 12  2  1  0
 13  3  1  0
 15  2  1  0
 16  5  1  0
 16 14  1  0
M  RAD  8   1   2   2   3   3   2   4   2   5   3   6   2   7   2   8   2
M  RAD  8   9   2  10   2  11   2  12   2  13   3  14   3  15   3  16   2
M  END
$$$$
/tmp/tmp4wbajidz
     RDKit          3D

 20 21  0  0  1  0  0  0  0  0999 V2000
   22.1567   32.2342   15.2777 O   0  0  0  0  0  1  0  0  0  0  0  0
   20.0562   28.9599   13.7735 C   0  0  2  0  0  0  0  0  0  0  0  0
   17.4565   27.4683    8.5058 F   0  0  0  0  0  0  0  0  0  0  0  0
   18.6093   32.1480   15.1995 C   0  0  0  0  0  2  0  0  0  0  0  0
   17.2271   27.5989   10.8472 C   0  0  0  0  0  0  0  0  0  0  0  0
   18.0009   32.7469   13.9456 C   0  0  0  0  0  1  0  0  0  0  0  0
   17.9707   27.7114   13.2424 C   0  0  0  0  0  2  0  0  0  0  0  0
   21.3271   31.8778   16.3476 C   0  0  0  0  0  2  0  0  0  0  0  0
   19.6260   31.0699   14.8334 C   0  0  0  0  0  3  0  0  0  0  0  0
   16.0181   27.7315   10.9521 O   0  0  0  0  0  0  0  0  0  0  0  0
   20.6963   28.3902   15.0341 C   0  0  0  0  0  2  0  0  0  0  0  0
   18.7014   29.0491   13.1047 C   0  0  0  0  0  3  0  0  0  0  0  0
   21.3743   29.5689   15.7760 C   0  0  0  0  0  2  0  0  0  0  0  0
   17.9931   26.9090   11.9431 C   0  0  0  0  0  3  0  0  0  0  0  0
   18.2190   29.1790   15.4733 O   0  0  0  0  0  1  0  0  0  0  0  0
   17.9182   28.1267    9.6302 C   0  0  0  0  0  2  0  0  0  0  0  0
   20.9707   29.6975   13.0065 O   0  0  0  0  0  1  0  0  0  0  0  0
   18.8942   29.7990   14.4042 C   0  0  1  0  0  0  0  0  0  0  0  0
   19.3089   26.6343   11.5590 O   0  0  0  0  0  1  0  0  0  0  0  0
   20.4792   30.7335   16.0034 N   0  0  0  0  0  0  0  0  0  0  0  0
  1  8  1  0
  2 17  1  6
  2 12  1  0
  2 18  1  0
  3 16  1  0
  5 14  1  0
  6  4  1  0
  9 20  1  0
  9  4  1  0
 10  5  2  0
 11  2  1  0
 11 13  1  0
 12  7  1  0
 12 18  1  0
 13 20  1  0
 14 19  1  0
 14  7  1  0
 16  5  1  0
 18  9  1  0
 18 15  1  1
 20  8  1  0
M  RAD  8   1   2   4   3   6   2   7   3   8   3   9   2  11   3  12   2
M  RAD  6  13   3  14   2  15   2  16   3  17   2  19   2
M  END
$$$$

     RDKit          3D

 16 15  0  0  0  0  0  0  0  0999 V2000
   14.5233   33.7628   16.4988 C   0  0  0  0  0  1  0  0  0  0  0  0
   20.4751   28.4335   12.2260 O   0  0  0  0  0  0  0  0  0  0  0  0
   19.4412   29.3974   15.5697 C   0  0  0  0  0  2  0  0  0  0  0  0
   16.7192   33.2408   14.3563 C   0  0  0  0  0  2  0  0  0  0  0  0
   17.6266   27.3903   14.3583 C   0  0  0  0  0  1  0  0  0  0  0  0
   17.8969   27.6231   12.0202 O   0  0  0  0  0  0  0  0  0  0  0  0
   19.2239   30.8940   15.4047 C   0  0  0  0  0  2  0  0  0  0  0  0
   21.7342   29.0438   14.6570 C   0  0  0  0  0  1  0  0  0  0  0  0
   18.9839   33.3379   13.7128 O   0  0  0  0  0  0  0  0  0  0  0  0
   18.4040   27.8083   13.1580 C   0  0  0  0  0  0  0  0  0  0  0  0
   16.7869   34.1861   15.5444 C   0  0  0  0  0  2  0  0  0  0  0  0
   20.2963   28.8775   14.5084 N   0  0  0  0  0  0  0  0  0  0  0  0
   18.0601   32.6385   14.0989 C   0  0  0  0  0  0  0  0  0  0  0  0
   19.7619   28.3842   13.2653 C   0  0  0  0  0  0  0  0  0  0  0  0
   15.4200   34.7841   15.8245 C   0  0  0  0  0  2  0  0  0  0  0  0
   18.2525   31.1689   14.2698 C   0  0  0  0  0  2  0  0  0  0  0  0
  2 14  2  0
  3  7  1  0
  4 11  1  0
  6 10  2  0
  9 13  2  0
 10 14  1  0
 10  5  1  0
 11 15  1  0
 12  8  1  0
 12  3  1  0
 13 16  1  0
 13  4  1  0
 14 12  1  0
 15  1  1  0
 16  7  1  0
M  RAD  8   1   2   3   3   4   3   5   2   7   3   8   2  11   3  15   3
M  RAD  1  16   3
M  END
$$$$
/tmp/tmpchxthj55
     RDKit          3D

 20 21  0  0  1  0  0  0  0  0999 V2000
   22.5083   29.4309   12.9951 C   0  0  0  0  0  3  0  0  0  0  0  0
   18.5828   31.6844   15.4103 C   0  0  0  0  0  2  0  0  0  0  0  0
   17.7193   30.5319   15.8959 C   0  0  0  0  0  2  0  0  0  0  0  0
   21.9664   28.6382   12.0736 C   0  0  0  0  0  0  0  0  0  0  0  0
   20.6961   31.1057   10.2202 Cl  0  0  0  0  0  0  0  0  0  0  0  0
   21.7934   30.6040   13.6106 C   0  0  2  0  0  0  0  0  0  0  0  0
   20.4320   30.4014   14.2808 C   0  0  1  0  0  0  0  0  0  0  0  0
   16.2462   30.9043   15.8228 C   0  0  0  0  0  2  0  0  0  0  0  0
   20.0555   31.3053   15.4520 C   0  0  0  0  0  2  0  0  0  0  0  0
   20.5168   31.0940   12.9106 C   0  0  0  0  0  3  0  0  0  0  0  0
   15.8063   31.4526   18.1816 C   0  0  0  0  0  3  0  0  0  0  0  0
   15.8702   31.8572   16.9129 C   0  0  0  0  0  3  0  0  0  0  0  0
   18.3026   30.2867   11.5863 Cl  0  0  0  0  0  0  0  0  0  0  0  0
   22.6624   31.7386   14.1249 C   0  0  0  0  0  1  0  0  0  0  0  0
   19.9464   29.0902   14.3060 O   0  0  0  0  0  1  0  0  0  0  0  0
   22.7125   27.5891   11.5554 O   0  0  0  0  0  1  0  0  0  0  0  0
   20.5495   28.8153   11.6291 C   0  0  0  0  0  2  0  0  0  0  0  0
   13.9522   32.7322   19.2023 C   0  0  0  0  0  1  0  0  0  0  0  0
   20.0801   30.2746   11.6701 C   0  0  1  0  0  0  0  0  0  0  0  0
   15.4318   32.4034   19.2703 C   0  0  0  0  0  2  0  0  0  0  0  0
  1  6  1  0
  2  9  1  0
  3  2  1  0
  4  1  2  0
 19  5  1  6
  6 14  1  1
  6  7  1  0
  7 15  1  6
  7  9  1  0
  8  3  1  0
  8 12  1  0
 10 19  1  0
 10  6  1  0
 10  7  1  0
 11 20  1  0
 12 11  2  0
 16  4  1  0
 17  4  1  0
 17 19  1  0
 18 20  1  0
 19 13  1  0
M  RAD  8   1   2   2   3   3   3   8   3   9   3  10   2  11   2  12   2
M  RAD  6  14   2  15   2  16   2  17   3  18   2  20   3
M  END
$$$$

     RDKit          3D

 15 15  0  0  0  0  0  0  0  0999 V2000
   18.3581   29.8448   15.7014 C   0  0  0  0  0  3  0  0  0  0  0  0
   18.1625   27.9849   13.0433 C   0  0  0  0  0  2  0  0  0  0  0  0
   16.4890   29.7354   12.3882 C   0  0  0  0  0  2  0  0  0  0  0  0
   16.7365   28.4978   13.2461 C   0  0  0  0  0  2  0  0  0  0  0  0
   18.2240   31.0579   15.6970 O   0  0  0  0  0  0  0  0  0  0  0  0
   19.6483   32.5462   13.5754 O   0  0  0  0  0  1  0  0  0  0  0  0
   21.0452   31.3397   12.2211 O   0  0  0  0  0  0  0  0  0  0  0  0
   19.4353   29.1705   14.8952 C   0  0  0  0  0  3  0  0  0  0  0  0
   19.1989   29.0628   13.3744 C   0  0  0  0  0  3  0  0  0  0  0  0
   18.9037   30.3598   12.5889 C   0  0  0  0  0  3  0  0  0  0  0  0
   20.8318   29.5777   15.2574 C   0  0  0  0  0  0  0  0  0  0  0  0
   21.8509   28.6365   15.2041 O   0  0  0  0  0  1  0  0  0  0  0  0
   19.9211   31.4410   12.7775 C   0  0  0  0  0  0  0  0  0  0  0  0
   21.1001   30.7655   15.5793 O   0  0  0  0  0  0  0  0  0  0  0  0
   17.4645   30.8465   12.7635 C   0  0  0  0  0  2  0  0  0  0  0  0
  1  5  2  0
  2  9  1  0
  3 15  1  0
  3  4  1  0
  4  2  1  0
  7 13  2  0
  8  1  1  0
  8 11  1  0
  9  8  1  0
 10 13  1  0
 10  9  1  0
 11 14  2  0
 11 12  1  0
 13  6  1  0
 15 10  1  0
M  RAD  8   1   2   2   3   3   3   4   3   6   2   8   2   9   2  10   2
M  RAD  2  12   2  15   3
M  END
$$$$
/tmp/tmpzz3hqefr
     RDKit          3D

 20 22  0  0  1  0  0  0  0  0999 V2000
   19.0206   29.2784   13.7389 N   0  0  0  0  0  2  0  0  0  0  0  0
   19.0677   27.2519   11.6341 C   0  0  0  0  0  2  0  0  0  0  0  0
   19.4211   29.4008   16.0314 O   0  0  0  0  0  1  0  0  0  0  0  0
   21.6853   28.9963   12.8386 C   0  0  0  0  0  3  0  0  0  0  0  0
   18.3446   26.3214   10.6841 C   0  0  0  0  0  1  0  0  0  0  0  0
   19.5483   30.1196   14.8408 C   0  0  1  0  0  0  0  0  0  0  0  0
   16.8278   35.4915   17.5821 C   0  0  0  0  0  2  0  0  0  0  0  0
   15.7954   34.6418   18.2880 C   0  0  0  0  0  3  0  0  0  0  0  0
   21.0307   30.4769   14.6822 C   0  0  0  0  0  2  0  0  0  0  0  0
   18.6277   31.0312   12.0372 C   0  0  0  0  0  1  0  0  0  0  0  0
   18.5849   28.6786   11.4118 C   0  0  0  0  0  2  0  0  0  0  0  0
   16.0643   34.4385   16.8078 C   0  0  0  0  0  0  0  0  0  0  0  0
   14.6599   34.2848   17.3538 C   0  0  0  0  0  2  0  0  0  0  0  0
   16.5211   32.4685   15.3656 C   0  0  0  0  0  2  0  0  0  0  0  0
   16.8141   33.1255   16.7030 C   0  0  0  0  0  2  0  0  0  0  0  0
   19.2689   29.6870   12.3341 C   0  0  2  0  0  0  0  0  0  0  0  0
   18.7529   31.4171   14.9807 C   0  0  0  0  0  2  0  0  0  0  0  0
   17.2746   31.1569   15.2452 C   0  0  0  0  0  2  0  0  0  0  0  0
   21.8270   29.3371   14.1212 C   0  0  0  0  0  3  0  0  0  0  0  0
   20.7590   29.7702   11.9435 C   0  0  0  0  0  2  0  0  0  0  0  0
  1  6  1  0
  2 11  1  0
  4 19  2  0
  5  2  1  0
  6 17  1  0
  6  3  1  1
  8  7  1  0
  9  6  1  0
 11 16  1  0
 12 15  1  0
 12  7  1  0
 12 13  1  0
 12  8  1  0
 13  8  1  0
 14 15  1  0
 14 18  1  0
 16 10  1  1
 16  1  1  0
 18 17  1  0
 19  9  1  0
 20 16  1  0
 20  4  1  0
M  RAD  8   1   2   2   3   3   2   4   2   5   2   7   3   8   2   9   3
M  RAD  8  10   2  11   3  13   3  14   3  15   3  17   3  18   3  19   2
M  RAD  1  20   3
M  END
$$$$

     RDKit          3D

 19 20  0  0  0  0  0  0  0  0999 V2000
   20.1879   28.6563   14.4098 C   0  0  0  0  0  3  0  0  0  0  0  0
   20.9437   29.6315   16.0407 C   0  0  0  0  0  3  0  0  0  0  0  0
   21.1115   29.8661   14.5446 C   0  0  0  0  0  3  0  0  0  0  0  0
   16.1621   34.6388   14.7717 O   0  0  0  0  0  0  0  0  0  0  0  0
   18.9047   28.9812   13.7945 N   0  0  0  0  0  2  0  0  0  0  0  0
   18.2576   34.9861   15.7390 C   0  0  0  0  0  0  0  0  0  0  0  0
   20.5037   31.0537   14.1197 O   0  0  0  0  0  1  0  0  0  0  0  0
   20.3238   30.7774   16.8631 C   0  0  0  0  0  2  0  0  0  0  0  0
   17.5423   31.0050   17.1042 C   0  0  0  0  0  2  0  0  0  0  0  0
   17.8775   33.1457   14.0405 C   0  0  0  0  0  2  0  0  0  0  0  0
   17.3665   34.2835   14.8598 C   0  0  0  0  0  0  0  0  0  0  0  0
   19.7139   28.8970   11.6036 O   0  0  0  0  0  0  0  0  0  0  0  0
   18.8600   30.9965   16.6272 C   0  0  0  0  0  0  0  0  0  0  0  0
   18.7405   29.0881   12.3798 C   0  0  0  0  0  0  0  0  0  0  0  0
   18.9764   35.5513   16.4482 N   0  0  0  0  0  0  0  0  0  0  0  0
   17.7536   31.3742   15.7694 C   0  0  0  0  0  0  0  0  0  0  0  0
   17.2257   31.8336   14.4508 C   0  0  0  0  0  2  0  0  0  0  0  0
   20.0251   28.5125   15.8534 N   0  0  0  0  0  2  0  0  0  0  0  0
   17.4073   29.4265   11.8181 C   0  0  0  0  0  1  0  0  0  0  0  0
  1  5  1  0
  1  3  1  0
  1 18  1  0
  2  8  1  0
  2 18  1  0
  3  7  1  0
  3  2  1  0
  6 15  3  0
  8 13  1  0
 10 17  1  0
 10 11  1  0
 11  4  2  0
 11  6  1  0
 12 14  2  0
 13 16  2  0
 13  9  1  0
 14  5  1  0
 16  9  1  0
 17 16  1  0
 19 14  1  0
M  RAD  8   1   2   2   2   3   2   5   2   7   2   8   3   9   3  10   3
M  RAD  3  17   3  18   2  19   2
M  END
$$$$
/tmp/tmp82dtb4ll
     RDKit          3D

 20 19  0  0  1  0  0  0  0  0999 V2000
   19.1094   31.5434   13.0790 C   0  0  0  0  0  3  0  0  0  0  0  0
   15.4748   33.3339   17.7693 C   0  0  0  0  0  1  0  0  0  0  0  0
   20.9719   32.2722   11.5912 O   0  0  0  0  0  1  0  0  0  0  0  0
   18.2539   30.4560   12.8480 O   0  0  0  0  0  0  0  0  0  0  0  0
   18.1923   32.2669   15.2998 C   0  0  0  0  0  3  0  0  0  0  0  0
   19.0069   28.4365   11.7863 C   0  0  0  0  0  3  0  0  0  0  0  0
   20.0168   27.3088   11.9017 C   0  0  0  0  0  1  0  0  0  0  0  0
   19.3143   29.2007   10.6602 O   0  0  0  0  0  1  0  0  0  0  0  0
   19.4866   32.5330   16.0509 C   0  0  0  0  0  1  0  0  0  0  0  0
   18.3663   32.6349   13.8375 C   0  0  0  0  0  2  0  0  0  0  0  0
   21.3272   29.5200   15.2424 C   0  0  0  0  0  3  0  0  0  0  0  0
   20.3015   28.7618   15.7955 O   0  0  0  0  0  0  0  0  0  0  0  0
   19.6085   32.0967   11.7831 C   0  0  0  0  0  0  0  0  0  0  0  0
   18.9409   29.0870   15.5509 C   0  0  0  0  0  2  0  0  0  0  0  0
   19.0323   29.3054   13.0432 C   0  0  0  0  0  3  0  0  0  0  0  0
   22.5266   29.2147   15.4667 O   0  0  0  0  0  0  0  0  0  0  0  0
   18.8017   32.4159   10.8697 O   0  0  0  0  0  0  0  0  0  0  0  0
   18.4771   28.5113   14.2212 C   0  0  0  0  0  2  0  0  0  0  0  0
   16.5916   32.4879   17.1960 C   0  0  0  0  0  2  0  0  0  0  0  0
   17.0702   33.0990   15.8926 C   0  0  0  0  0  2  0  0  0  0  0  0
  1 10  1  0
  4  1  1  0
  5 20  1  0
  5  9  1  0
  6  7  1  0
  6 15  1  0
  8  6  1  0
 10  5  1  0
 11 16  2  0
 12 11  1  0
 12 14  1  0
 13  3  1  0
 13  1  1  0
 15  4  1  0
 15 18  1  0
 17 13  2  0
 18 14  1  0
 19  2  1  0
 20 19  1  0
M  RAD  8   1   2   2   2   3   2   5   2   6   2   7   2   8   2   9   2
M  RAD  7  10   3  11   2  14   3  15   2  18   3  19   3  20   3
M  END
$$$$

     RDKit          3D

 15 16  0  0  0  0  0  0  0  0999 V2000
   18.1351   29.5318   11.7619 C   0  0  0  0  0  1  0  0  0  0  0  0
   18.3003   34.4219   14.2602 C   0  0  0  0  0  1  0  0  0  0  0  0
   17.7948   31.0980   15.3507 C   0  0  2  0  0  0  0  0  0  0  0  0
   20.6546   29.6090   14.6732 C   0  0  0  0  0  2  0  0  0  0  0  0
   18.9414   30.6425   16.2907 C   0  0  0  0  0  3  0  0  0  0  0  0
   18.8713   29.0388   12.9937 C   0  0  0  0  0  3  0  0  0  0  0  0
   18.2823   32.0369   14.4122 O   0  0  0  0  0  0  0  0  0  0  0  0
   18.6600   29.3943   16.9865 N   0  0  0  0  0  1  0  0  0  0  0  0
   20.3674   30.6776   15.7205 C   0  0  0  0  0  2  0  0  0  0  0  0
   16.7547   31.7817   16.2196 C   0  0  0  0  0  2  0  0  0  0  0  0
   16.8542   33.2270   15.8625 C   0  0  0  0  0  2  0  0  0  0  0  0
   17.0661   29.9620   14.6030 C   0  0  0  0  0  2  0  0  0  0  0  0
   17.4684   33.1783   14.4945 C   0  0  0  0  0  3  0  0  0  0  0  0
   17.9107   28.7649   14.1545 C   0  0  0  0  0  2  0  0  0  0  0  0
   20.0095   29.9862   13.3492 C   0  0  0  0  0  2  0  0  0  0  0  0
  3 12  1  6
  3  5  1  0
  3 10  1  0
  5  8  1  0
  6  1  1  0
  6 15  1  0
  6 14  1  0
  7 13  1  0
  7  3  1  0
  9  4  1  0
  9  5  1  0
 11 10  1  0
 12 14  1  0
 13  2  1  0
 13 11  1  0
 15  4  1  0
M  RAD  8   1   2   2   2   4   3   5   2   6   2   8   3   9   3  10   3
M  RAD  5  11   3  12   3  13   2  14   3  15   3
M  END
$$$$

     RDKit          3D

 10  9  0  0  0  0  0  0  0  0999 V2000
   15.4198   32.9558   14.0657 C   0  0  0  0  0  3  0  0  0  0  0  0
   20.1558   31.0991   17.0903 N   0  0  0  0  0  2  0  0  0  0  0  0
   20.8094   30.9777   18.3821 C   0  0  0  0  0  2  0  0  0  0  0  0
   20.3878   29.8082   19.0156 O   0  0  0  0  0  1  0  0  0  0  0  0
   17.8889   32.9413   13.7849 C   0  0  0  0  0  2  0  0  0  0  0  0
   18.6107   32.7738   15.0835 C   0  0  0  0  0  3  0  0  0  0  0  0
   18.8894   31.7789   17.3118 C   0  0  0  0  0  2  0  0  0  0  0  0
   15.2130   32.2869   15.0650 O   0  0  0  0  0  0  0  0  0  0  0  0
   18.1613   31.9379   16.0188 C   0  0  0  0  0  3  0  0  0  0  0  0
   16.6459   33.8026   13.9555 C   0  0  0  0  0  2  0  0  0  0  0  0
  1 10  1  0
  1  8  2  0
  2  7  1  0
  3  2  1  0
  3  4  1  0
  5 10  1  0
  5  6  1  0
  9  7  1  0
  9  6  2  0
M  RAD  8   1   2   2   2   3   3   4   2   5   3   6   2   7   3   9   2
M  RAD  1  10   3
M  END
$$$$
/tmp/tmpsitp5wq4
     RDKit          3D

 20 19  0  0  1  0  0  0  0  0999 V2000
   16.9618   34.4662   15.8164 C   0  0  0  0  0  2  0  0  0  0  0  0
   20.5722   30.4429   15.6562 C   0  0  0  0  0  3  0  0  0  0  0  0
   18.1361   30.7922   15.4510 C   0  0  0  0  0  2  0  0  0  0  0  0
   18.7988   31.7410   12.6407 O   0  0  0  0  0  1  0  0  0  0  0  0
   17.9110   28.7513   13.4386 C   0  0  0  0  0  3  0  0  0  0  0  0
   17.7285   27.2459   13.4678 C   0  0  0  0  0  1  0  0  0  0  0  0
   19.3168   29.1441   13.9306 C   0  0  0  0  0  3  0  0  0  0  0  0
   19.4445   30.5273   14.6582 C   0  0  2  0  0  0  0  0  0  0  0  0
   15.5889   34.2727   16.3758 C   0  0  0  0  0  3  0  0  0  0  0  0
   17.9412   32.1689   16.1087 C   0  0  0  0  0  3  0  0  0  0  0  0
   19.7194   31.7007   13.6891 C   0  0  0  0  0  3  0  0  0  0  0  0
   21.7078   28.7178   13.6880 O   0  0  0  0  0  1  0  0  0  0  0  0
   20.5419   29.2599   11.6711 C   0  0  0  0  0  1  0  0  0  0  0  0
   20.5701   29.6063   16.5468 O   0  0  0  0  0  0  0  0  0  0  0  0
   19.0954   32.6095   16.7597 O   0  0  0  0  0  1  0  0  0  0  0  0
   21.0211   31.6843   13.1820 O   0  0  0  0  0  1  0  0  0  0  0  0
   15.4052   33.5343   17.3299 O   0  0  0  0  0  0  0  0  0  0  0  0
   17.6588   29.2340   12.1543 O   0  0  0  0  0  1  0  0  0  0  0  0
   17.4500   33.2087   15.1107 C   0  0  0  0  0  2  0  0  0  0  0  0
   20.4735   28.6192   13.0464 C   0  0  0  0  0  3  0  0  0  0  0  0
  1  9  1  0
  2 14  2  0
  3 10  1  0
  4 11  1  0
  5  6  1  0
  7  5  1  0
  7  8  1  0
  8  3  1  1
  8  2  1  0
  9 17  2  0
 10 15  1  0
 11  8  1  0
 16 11  1  0
 18  5  1  0
 19 10  1  0
 19  1  1  0
 20 13  1  0
 20  7  1  0
 20 12  1  0
M  RAD  8   1   3   2   2   3   3   4   2   5   2   6   2   7   2   9   2
M  RAD  8  10   2  11   2  12   2  13   2  15   2  16   2  18   2  19   3
M  RAD  1  20   2
M  END
$$$$
/tmp/tmpfmhjgjp3
     RDKit          3D

 20 23  0  0  1  0  0  0  0  0999 V2000
   21.1159   30.4358   11.6358 N   0  0  0  0  0  2  0  0  0  0  0  0
   15.7368   33.1776   14.2725 C   0  0  0  0  0  3  0  0  0  0  0  0
   16.5131   34.6895   16.0255 N   0  0  0  0  0  1  0  0  0  0  0  0
   15.8161   31.9539   13.6032 C   0  0  0  0  0  3  0  0  0  0  0  0
   20.6162   30.3902   14.0376 C   0  0  2  0  0  0  0  0  0  0  0  0
   20.3673   31.7056   13.4172 C   0  0  0  0  0  0  0  0  0  0  0  0
   20.0266   32.7491   14.0328 O   0  0  0  0  0  0  0  0  0  0  0  0
   21.3137   29.6691   12.8775 C   0  0  0  0  0  2  0  0  0  0  0  0
   18.6253   30.2001   15.4753 C   0  0  0  0  0  3  0  0  0  0  0  0
   16.7587   31.0005   13.9985 C   0  0  0  0  0  3  0  0  0  0  0  0
   20.6628   31.6953   12.0454 N   0  0  0  0  0  2  0  0  0  0  0  0
   17.6363   31.2643   15.0598 C   0  0  0  0  0  0  0  0  0  0  0  0
   19.3733   29.6593   14.3410 N   0  0  0  0  0  2  0  0  0  0  0  0
   21.0150   30.5531   16.5153 C   0  0  0  0  0  3  0  0  0  0  0  0
   16.5971   33.4465   15.3398 C   0  0  0  0  0  0  0  0  0  0  0  0
   17.5387   32.4927   15.7354 C   0  0  0  0  0  3  0  0  0  0  0  0
   19.5176   30.5363   16.6337 C   0  0  0  0  0  0  0  0  0  0  0  0
   19.0174   30.7583   17.7246 O   0  0  0  0  0  0  0  0  0  0  0  0
   21.4491   29.3810   15.9714 O   0  0  0  0  0  0  0  0  0  0  0  0
   21.5640   30.5058   15.1668 N   0  0  0  0  0  0  0  0  0  0  0  0
  2 15  2  0
  4  2  1  0
  5  8  1  6
  5 20  1  0
  6 11  1  0
  6  5  1  0
  7  6  2  0
  8  1  1  0
  9 17  1  0
  9 12  1  0
 10 12  1  0
 10  4  2  0
 11  1  1  0
 12 16  2  0
 13  5  1  0
 13  9  1  0
 14 17  1  0
 14 19  1  0
 15  3  1  0
 16 15  1  0
 18 17  2  0
 20 14  1  0
 20 19  1  0
M  RAD  8   1   2   2   2   3   3   4   2   8   3   9   2  10   2  11   2
M  RAD  3  13   2  14   2  16   2
M  END
$$$$
/tmp/tmpuxyta0o_
     RDKit          3D

 20 23  0  0  1  0  0  0  0  0999 V2000
   20.0665   28.5590   13.2124 N   0  0  0  0  0  0  0  0  0  0  0  0
   19.2200   30.5355   14.5624 C   0  0  0  0  0  3  0  0  0  0  0  0
   16.1317   28.0481   11.4441 C   0  0  0  0  0  1  0  0  0  0  0  0
   16.0920   33.5457   16.3903 C   0  0  0  0  0  2  0  0  0  0  0  0
   17.5813   28.4181   11.6735 C   0  0  0  0  0  2  0  0  0  0  0  0
   21.9708   29.9326   13.1156 O   0  0  0  0  0  0  0  0  0  0  0  0
   16.9397   31.4896   16.4796 C   0  0  0  0  0  2  0  0  0  0  0  0
   17.6909   29.2879   12.9176 C   0  0  0  0  0  2  0  0  0  0  0  0
   20.2742   31.6939   12.2850 O   0  0  0  0  0  1  0  0  0  0  0  0
   21.6422   29.6739   14.4643 C   0  0  0  0  0  3  0  0  0  0  0  0
   20.8556   28.4059   14.4210 C   0  0  0  0  0  2  0  0  0  0  0  0
   19.8450   30.3820   12.0466 C   0  0  0  0  0  3  0  0  0  0  0  0
   20.7744   30.8291   16.3870 O   0  0  0  0  0  1  0  0  0  0  0  0
   20.9359   29.3454   12.3292 C   0  0  0  0  0  3  0  0  0  0  0  0
   19.1302   29.7153   13.2303 C   0  0  2  0  0  0  0  0  0  0  0  0
   17.4777   33.7000   15.8108 C   0  0  0  0  0  2  0  0  0  0  0  0
   15.7359   32.1919   16.3234 O   0  0  0  0  0  0  0  0  0  0  0  0
   20.6954   30.7753   14.9950 C   0  0  0  0  0  3  0  0  0  0  0  0
   18.4223   31.8382   14.5100 C   0  0  0  0  0  2  0  0  0  0  0  0
   18.0655   32.3246   15.9059 C   0  0  0  0  0  3  0  0  0  0  0  0
  1 15  1  0
  1 11  1  0
  2 19  1  0
  2 18  1  0
  3  5  1  0
  4 17  1  0
  5  8  1  0
  6 10  1  0
  7 17  1  0
 10 11  1  0
 10 18  1  0
 12  9  1  0
 12 14  1  0
 12 15  1  0
 14  1  1  0
 14  6  1  0
 15  8  1  6
 15  2  1  0
 16  4  1  0
 18 13  1  0
 20 19  1  0
 20 16  1  0
 20  7  1  0
M  RAD  8   2   2   3   2   4   3   5   3   7   3   8   3   9   2  10   2
M  RAD  8  11   3  12   2  13   2  14   2  16   3  18   2  19   3  20   2
M  END
$$$$
/tmp/tmptjegcowp
     RDKit          3D

 20 21  0  0  1  0  0  0  0  0999 V2000
   16.7357   29.4069   11.1954 C   0  0  0  0  0  2  0  0  0  0  0  0
   18.6960   29.9813   12.4963 C   0  0  0  0  0  3  0  0  0  0  0  0
   21.0973   31.3401   15.1277 N   0  0  0  0  0  2  0  0  0  0  0  0
   17.6588   30.5582   11.5701 C   0  0  0  0  0  2  0  0  0  0  0  0
   18.9126   28.2811   14.2947 C   0  0  0  0  0  2  0  0  0  0  0  0
   19.5298   31.0481   13.2124 C   0  0  0  0  0  3  0  0  0  0  0  0
   17.5412   33.7268   16.0148 C   0  0  0  0  0  3  0  0  0  0  0  0
   18.6877   33.0694   16.1950 C   0  0  0  0  0  0  0  0  0  0  0  0
   16.7809   28.1293   12.5068 S   0  0  0  0  0  0  0  0  0  0  0  0
   22.1871   33.3484   15.5257 O   0  0  0  0  0  0  0  0  0  0  0  0
   17.9371   29.1261   13.4761 C   0  0  0  0  0  3  0  0  0  0  0  0
   17.7572   30.9054   17.0231 C   0  0  0  0  0  1  0  0  0  0  0  0
   17.4004   34.8408   15.0333 C   0  0  0  0  0  1  0  0  0  0  0  0
   20.6613   31.3266   12.4420 O   0  0  0  0  0  1  0  0  0  0  0  0
   19.9314   30.6083   14.6441 C   0  0  0  0  0  3  0  0  0  0  0  0
   20.1462   29.0864   14.7522 C   0  0  0  0  0  3  0  0  0  0  0  0
   19.8709   33.4896   15.5001 N   0  0  0  0  0  2  0  0  0  0  0  0
   20.4742   28.7188   16.1190 N   0  0  0  0  0  1  0  0  0  0  0  0
   21.0903   32.7434   15.4107 C   0  0  0  0  0  0  0  0  0  0  0  0
   18.7640   32.0190   17.2624 C   0  0  0  0  0  2  0  0  0  0  0  0
  1  9  1  0
  2  4  1  0
  2  6  1  0
  2 11  1  0
  3 19  1  0
  4  1  1  0
  5 16  1  0
  6 14  1  0
  6 15  1  0
  8 20  1  0
  8  7  2  0
  9 11  1  0
 11  5  1  0
 12 20  1  0
 13  7  1  0
 15  3  1  0
 15 16  1  0
 16 18  1  0
 17  8  1  0
 19 17  1  0
 19 10  2  0
M  RAD  8   1   3   2   2   3   2   4   3   5   3   6   2   7   2  11   2
M  RAD  8  12   2  13   2  14   2  15   2  16   2  17   2  18   3  20   3
M  END
$$$$
/tmp/tmpi7g879_g
     RDKit          3D

 20 21  0  0  1  0  0  0  0  0999 V2000
   17.9251   32.8694   18.6789 C   0  0  0  0  0  3  0  0  0  0  0  0
   17.2853   32.6845   20.0385 C   0  0  0  0  0  1  0  0  0  0  0  0
   19.6013   28.5719   15.4094 N   0  0  0  0  0  2  0  0  0  0  0  0
   20.5915   32.1618   12.5080 C   0  0  0  0  0  0  0  0  0  0  0  0
   20.2038   28.6980   11.6961 C   0  0  0  0  0  2  0  0  0  0  0  0
   18.1619   30.2981   16.3604 C   0  0  0  0  0  3  0  0  0  0  0  0
   17.1050   32.1232   17.6459 C   0  0  0  0  0  3  0  0  0  0  0  0
   20.5084   33.0221   13.3485 C   0  0  0  0  0  3  0  0  0  0  0  0
   17.9868   31.7998   16.4577 C   0  0  0  0  0  3  0  0  0  0  0  0
   21.6740   31.1217   10.7217 O   0  0  0  0  0  0  0  0  0  0  0  0
   19.5121   29.9900   15.7237 C   0  0  0  0  0  2  0  0  0  0  0  0
   19.2844   28.4170   13.9987 C   0  0  0  0  0  2  0  0  0  0  0  0
   19.6269   30.0858   11.4213 C   0  0  0  0  0  3  0  0  0  0  0  0
   17.6281   29.4036   10.0949 C   0  0  0  0  0  1  0  0  0  0  0  0
   20.6902   31.1350   11.5090 C   0  0  0  0  0  0  0  0  0  0  0  0
   18.9613   30.1262   10.0546 C   0  0  0  0  0  2  0  0  0  0  0  0
   16.9730   33.6256   17.7776 C   0  0  0  0  0  2  0  0  0  0  0  0
   17.1815   31.0228   15.4352 C   0  0  0  0  0  3  0  0  0  0  0  0
   17.7104   31.2448   14.1608 O   0  0  0  0  0  1  0  0  0  0  0  0
   20.5513   28.5307   13.1673 C   0  0  0  0  0  2  0  0  0  0  0  0
  1  2  1  0
  3 11  1  0
  4  8  3  0
  5 13  1  0
  5 20  1  0
  6  9  1  0
  6 11  1  0
  7 17  1  0
  7  1  1  0
  9  7  1  0
 10 15  2  0
 12  3  1  0
 13 16  1  0
 15 13  1  0
 15  4  1  0
 16 14  1  0
 17  1  1  0
 18 19  1  0
 18  6  1  0
 18  9  1  0
 20 12  1  0
M  RAD  8   1   2   2   2   3   2   5   3   6   2   7   2   8   2   9   2
M  RAD  8  11   3  12   3  13   2  14   2  16   3  17   3  18   2  19   2
M  RAD  1  20   3
M  END
$$$$
/tmp/tmpxai7fa2v
     RDKit          3D

 20 20  0  0  1  0  0  0  0  0999 V2000
   20.8279   29.8546   16.6379 O   0  0  0  0  0  1  0  0  0  0  0  0
   15.4590   33.6437   16.4486 C   0  0  0  0  0  2  0  0  0  0  0  0
   19.0056   27.8068   10.7844 O   0  0  0  0  0  1  0  0  0  0  0  0
   18.1541   28.6109   11.5442 C   0  0  2  0  0  0  0  0  0  0  0  0
   20.6650   31.1870   11.5652 O   0  0  0  0  0  1  0  0  0  0  0  0
   15.3469   35.0128   16.6908 O   0  0  0  0  0  1  0  0  0  0  0  0
   20.2759   29.2401   12.9512 C   0  0  2  0  0  0  0  0  0  0  0  0
   17.1792   33.8794   14.8190 O   0  0  0  0  0  1  0  0  0  0  0  0
   17.9303   28.0965   12.9458 C   0  0  0  0  0  2  0  0  0  0  0  0
   20.7576   27.7914   13.0942 C   0  0  0  0  0  1  0  0  0  0  0  0
   20.0707   29.4736   15.5261 C   0  0  0  0  0  3  0  0  0  0  0  0
   20.6820   30.0280   14.2232 C   0  0  0  0  0  3  0  0  0  0  0  0
   18.4960   31.4224   15.8412 C   0  0  0  0  0  2  0  0  0  0  0  0
   22.0772   30.0855   14.3351 O   0  0  0  0  0  1  0  0  0  0  0  0
   16.9215   29.1802   10.8751 C   0  0  0  0  0  1  0  0  0  0  0  0
   18.7392   29.3820   12.7238 C   0  0  0  0  0  3  0  0  0  0  0  0
   17.0331   31.7973   15.9712 C   0  0  0  0  0  2  0  0  0  0  0  0
   18.6214   29.9123   15.7216 C   0  0  0  0  0  2  0  0  0  0  0  0
   21.0042   29.8427   11.7436 C   0  0  0  0  0  2  0  0  0  0  0  0
   16.8842   33.3046   16.0570 C   0  0  0  0  0  3  0  0  0  0  0  0
  3  4  1  0
  4 15  1  6
  4 16  1  0
  4  9  1  0
  6  2  1  0
  7 10  1  1
  7 12  1  0
 11  1  1  0
 12 14  1  0
 12 11  1  0
 13 17  1  0
 16  7  1  0
 16  9  1  0
 18 11  1  0
 18 13  1  0
 19  5  1  0
 19  7  1  0
 20  8  1  0
 20 17  1  0
 20  2  1  0
M  RAD  8   1   2   2   3   3   2   5   2   6   2   8   2   9   3  10   2
M  RAD  8  11   2  12   2  13   3  14   2  15   2  16   2  17   3  18   3
M  RAD  2  19   3  20   2
M  END
$$$$
/tmp/tmpw425rg_t
     RDKit          3D

 20 21  0  0  1  0  0  0  0  0999 V2000
   19.6244   31.1842   17.1771 C   0  0  0  0  0  3  0  0  0  0  0  0
   20.9626   30.8800   14.8887 C   0  0  1  0  0  0  0  0  0  0  0  0
   20.4024   31.2598   13.4822 C   0  0  0  0  0  3  0  0  0  0  0  0
   16.3523   31.4814   16.5650 O   0  0  0  0  0  0  0  0  0  0  0  0
   21.2208   28.5735   14.1895 O   0  0  0  0  0  1  0  0  0  0  0  0
   22.3103   32.5146   12.4299 O   0  0  0  0  0  1  0  0  0  0  0  0
   19.8274   30.4157   15.8587 C   0  0  0  0  0  3  0  0  0  0  0  0
   20.4679   32.4470   17.4142 C   0  0  0  0  0  2  0  0  0  0  0  0
   18.5394   32.3367   12.5100 C   0  0  0  0  0  2  0  0  0  0  0  0
   17.4657   31.6100   13.0251 O   0  0  0  0  0  1  0  0  0  0  0  0
   15.2283   30.6656   16.6847 C   0  0  0  0  0  2  0  0  0  0  0  0
   18.6631   31.3864   16.0236 C   0  0  0  0  0  3  0  0  0  0  0  0
   21.4700   31.4078   12.4319 C   0  0  0  0  0  0  0  0  0  0  0  0
   21.6077   30.5183   11.5528 O   0  0  0  0  0  0  0  0  0  0  0  0
   21.8904   29.6685   14.7447 C   0  0  0  0  0  2  0  0  0  0  0  0
   19.5801   32.4665   13.5201 N   0  0  0  0  0  2  0  0  0  0  0  0
   21.8544   32.0002   15.4447 C   0  0  0  0  0  2  0  0  0  0  0  0
   21.0557   33.0634   16.1589 C   0  0  0  0  0  2  0  0  0  0  0  0
   14.0100   31.5218   16.9596 C   0  0  0  0  0  1  0  0  0  0  0  0
   17.3960   30.6005   16.2848 C   0  0  0  0  0  2  0  0  0  0  0  0
  1  8  1  0
  2 15  1  6
  2 17  1  0
  2  7  1  0
  3 13  1  0
  3  2  1  0
  4 11  1  0
  7  1  1  0
  9 16  1  0
  9 10  1  0
 11 19  1  0
 12 20  1  0
 12  7  1  0
 12  1  1  0
 13  6  1  0
 14 13  2  0
 15  5  1  0
 16  3  1  0
 17 18  1  0
 18  8  1  0
 20  4  1  0
M  RAD  8   1   2   3   2   5   2   6   2   7   2   8   3   9   3  10   2
M  RAD  8  11   3  12   2  15   3  16   2  17   3  18   3  19   2  20   3
M  END
$$$$
/tmp/tmpg57gm035
     RDKit          3D

 20 21  0  0  1  0  0  0  0  0999 V2000
   15.6987   33.4802   14.3486 C   0  0  0  0  0  3  0  0  0  0  0  0
   17.0100   31.4387   14.4150 C   0  0  0  0  0  0  0  0  0  0  0  0
   21.1144   31.7887   12.7288 O   0  0  0  0  0  0  0  0  0  0  0  0
   18.0591   30.5372   13.8421 C   0  0  0  0  0  3  0  0  0  0  0  0
   15.0785   33.1212   15.5489 C   0  0  0  0  0  3  0  0  0  0  0  0
   15.4256   31.9257   16.1850 C   0  0  0  0  0  3  0  0  0  0  0  0
   22.5933   29.9739   12.8554 N   0  0  0  0  0  2  0  0  0  0  0  0
   19.4104   31.0229   14.1564 N   0  0  0  0  0  0  0  0  0  0  0  0
   24.4380   28.2620   12.7428 C   0  0  0  0  0  1  0  0  0  0  0  0
   23.0041   28.6277   12.6114 C   0  0  0  0  0  0  0  0  0  0  0  0
   22.1634   27.7481   12.2854 O   0  0  0  0  0  0  0  0  0  0  0  0
   16.3918   31.0876   15.6200 C   0  0  0  0  0  3  0  0  0  0  0  0
   20.3463   29.9390   13.9398 C   0  0  0  0  0  3  0  0  0  0  0  0
   21.7910   30.7588   15.8660 N   0  0  0  0  0  1  0  0  0  0  0  0
   17.8679   30.3424   12.4665 O   0  0  0  0  0  1  0  0  0  0  0  0
   16.6647   32.6426   13.7834 C   0  0  0  0  0  3  0  0  0  0  0  0
   21.1991   30.3968   12.7667 C   0  0  0  0  0  3  0  0  0  0  0  0
   21.1827   28.5267   15.6746 O   0  0  0  0  0  0  0  0  0  0  0  0
   19.8286   32.0716   13.2211 C   0  0  0  0  0  2  0  0  0  0  0  0
   21.1195   29.6913   15.2031 C   0  0  0  0  0  0  0  0  0  0  0  0
  1  5  2  0
  2 12  1  0
  3 17  1  0
  3 19  1  0
  4 15  1  0
  4  2  1  0
  5  6  1  0
  8  4  1  0
  9 10  1  0
 10  7  1  0
 11 10  2  0
 12  6  2  0
 13  8  1  0
 13 20  1  0
 16  1  1  0
 16  2  2  0
 17  7  1  0
 17 13  1  0
 18 20  2  0
 19  8  1  0
 20 14  1  0
M  RAD  8   1   2   4   2   5   2   6   2   7   2   9   2  12   2  13   2
M  RAD  5  14   3  15   2  16   2  17   2  19   3
M  END
$$$$
/tmp/tmpbt4k6vl4
     RDKit          3D

 20 21  0  0  1  0  0  0  0  0999 V2000
   18.6747   32.3366   13.8634 O   0  0  0  0  0  0  0  0  0  0  0  0
   19.5183   31.7444   12.9224 C   0  0  0  0  0  0  0  0  0  0  0  0
   21.5913   28.4973   12.5366 C   0  0  0  0  0  2  0  0  0  0  0  0
   18.6763   29.9147   16.6641 N   0  0  0  0  0  2  0  0  0  0  0  0
   21.1465   30.2332   10.9980 O   0  0  0  0  0  1  0  0  0  0  0  0
   19.7958   32.3815   11.8719 O   0  0  0  0  0  0  0  0  0  0  0  0
   15.7205   34.1226   16.4648 C   0  0  0  0  0  2  0  0  0  0  0  0
   20.4199   28.4523   14.7491 C   0  0  0  0  0  3  0  0  0  0  0  0
   17.0921   33.7383   15.9454 C   0  0  0  0  0  2  0  0  0  0  0  0
   17.1440   32.2406   15.7178 C   0  0  0  0  0  2  0  0  0  0  0  0
   18.5123   31.8366   15.1902 C   0  0  0  0  0  3  0  0  0  0  0  0
   20.0385   29.9434   14.5946 C   0  0  0  0  0  3  0  0  0  0  0  0
   15.6422   36.2896   15.4671 O   0  0  0  0  0  1  0  0  0  0  0  0
   21.7206   28.1563   14.0103 C   0  0  0  0  0  2  0  0  0  0  0  0
   17.5375   29.2066   16.8502 O   0  0  0  0  0  1  0  0  0  0  0  0
   15.6464   35.6210   16.6917 C   0  0  0  0  0  2  0  0  0  0  0  0
   18.6989   30.3168   15.2647 C   0  0  0  0  0  3  0  0  0  0  0  0
   19.9574   30.3100   13.0971 C   0  0  0  0  0  3  0  0  0  0  0  0
   21.2686   29.9744   12.3642 C   0  0  0  0  0  3  0  0  0  0  0  0
   20.6212   28.1037   16.1452 N   0  0  0  0  0  1  0  0  0  0  0  0
  1 11  1  0
  2 18  1  0
  2  1  1  0
  3 14  1  0
  5 19  1  0
  6  2  2  0
  7 16  1  0
  8 20  1  0
  9  7  1  0
 10  9  1  0
 11 17  1  0
 11 10  1  0
 12 17  1  0
 12  8  1  0
 13 16  1  0
 14  8  1  0
 15  4  1  0
 17  4  1  0
 18 12  1  0
 19 18  1  0
 19  3  1  0
M  RAD  8   3   3   4   2   5   2   7   3   8   2   9   3  10   3  11   2
M  RAD  8  12   2  13   2  14   3  15   2  16   3  17   2  18   2  19   2
M  RAD  1  20   3
M  END
$$$$
/tmp/tmpptd0n27i
     RDKit          3D

 20 20  0  0  1  0  0  0  0  0999 V2000
   17.7838   31.3479   11.5692 N   0  0  0  0  0  2  0  0  0  0  0  0
   16.3607   28.9400   12.5425 C   0  0  0  0  0  3  0  0  0  0  0  0
   20.4944   32.3029   16.6886 C   0  0  0  0  0  3  0  0  0  0  0  0
   18.3795   32.9034   15.6713 C   0  0  0  0  0  3  0  0  0  0  0  0
   15.6108   28.1053   13.0221 O   0  0  0  0  0  0  0  0  0  0  0  0
   19.7621   34.6112   16.6893 C   0  0  0  0  0  3  0  0  0  0  0  0
   20.7112   33.6418   17.0277 C   0  0  0  0  0  3  0  0  0  0  0  0
   18.5963   34.2421   16.0111 C   0  0  0  0  0  3  0  0  0  0  0  0
   19.8934   30.1296   14.3916 C   0  0  0  0  0  3  0  0  0  0  0  0
   16.9755   29.9979   13.4065 C   0  0  0  0  0  3  0  0  0  0  0  0
   21.2264   28.0378   13.8157 N   0  0  0  0  0  2  0  0  0  0  0  0
   18.0614   30.7197   12.6651 C   0  0  0  0  0  0  0  0  0  0  0  0
   22.4444   28.8044   13.6118 C   0  0  0  0  0  1  0  0  0  0  0  0
   18.9729   27.9168   14.3473 O   0  0  0  0  0  0  0  0  0  0  0  0
   19.3939   30.7962   13.1882 N   0  0  0  0  0  2  0  0  0  0  0  0
   15.1596   30.3983   14.9106 O   0  0  0  0  0  1  0  0  0  0  0  0
   19.9904   28.6436   14.1984 C   0  0  0  0  0  0  0  0  0  0  0  0
   19.0985   30.5057   15.6406 C   0  0  0  0  0  2  0  0  0  0  0  0
   19.3271   31.9316   16.0113 C   0  0  0  0  0  0  0  0  0  0  0  0
   15.9276   30.9838   13.9042 C   0  0  0  0  0  2  0  0  0  0  0  0
  1 12  2  0
  3 19  2  0
  5  2  2  0
  6  8  1  0
  7  3  1  0
  7  6  2  0
  8  4  2  0
  9 17  1  0
  9 18  1  0
 10  2  1  0
 10 12  1  0
 10 20  1  0
 11 13  1  0
 11 17  1  0
 12 15  1  0
 15  9  1  0
 16 20  1  0
 17 14  2  0
 19  4  1  0
 19 18  1  0
M  RAD  8   1   2   2   2   3   2   4   2   6   2   7   2   8   2   9   2
M  RAD  7  10   2  11   2  13   2  15   2  16   2  18   3  20   3
M  END
$$$$

     RDKit          3D

 15 16  0  0  0  0  0  0  0  0999 V2000
   18.0192   34.1431   15.8139 S   0  0  0  0  0  0  0  0  0  0  0  0
   15.8599   36.3115   15.8149 S   0  0  0  0  0  0  0  0  0  0  0  0
   17.0094   36.3019   17.2705 C   0  0  0  0  0  2  0  0  0  0  0  0
   17.4825   32.5688   16.5641 C   0  0  0  0  0  3  0  0  0  0  0  0
   18.7637   30.7079   13.0198 O   0  0  0  0  0  0  0  0  0  0  0  0
   19.4325   31.8234   12.7862 O   0  0  0  0  0  1  0  0  0  0  0  0
   16.7130   34.9815   16.7372 C   0  0  2  0  0  0  0  0  0  0  0  0
   19.5575   30.4103   16.5737 O   0  0  0  0  0  1  0  0  0  0  0  0
   21.1069   28.7289   14.8980 O   0  0  0  0  0  1  0  0  0  0  0  0
   20.7566   29.7241   13.9856 C   0  0  0  0  0  2  0  0  0  0  0  0
   15.8177   34.0790   17.5447 C   0  0  0  0  0  2  0  0  0  0  0  0
   16.0206   32.6944   16.9659 C   0  0  0  0  0  2  0  0  0  0  0  0
   19.1145   31.0540   15.4159 C   0  0  0  0  0  3  0  0  0  0  0  0
   17.6466   31.4238   15.5795 C   0  0  0  0  0  2  0  0  0  0  0  0
   19.3013   30.1426   14.1942 C   0  0  0  0  0  3  0  0  0  0  0  0
  1  4  1  0
  1  7  1  0
  2  3  1  0
  4 14  1  0
  4 12  1  0
  5 15  1  0
  6  5  1  0
  7 11  1  1
  7  2  1  0
  7  3  1  0
 10  9  1  0
 12 11  1  0
 13  8  1  0
 14 13  1  0
 15 10  1  0
 15 13  1  0
M  RAD  8   3   3   4   2   6   2   8   2   9   2  10   3  11   3  12   3
M  RAD  3  13   2  14   3  15   2
M  END
$$$$

     RDKit          3D

  9  9  0  0  0  0  0  0  0  0999 V2000
   17.0852   31.9585   16.2431 C   0  0  0  0  0  2  0  0  0  0  0  0
   21.3822   32.9523   12.9870 O   0  0  0  0  0  0  0  0  0  0  0  0
   15.5977   34.2243   15.6612 S   0  0  0  0  0  0  0  0  0  0  0  0
   20.2001   33.4998   13.3239 S   0  0  0  0  0  3  0  0  0  0  0  0
   15.8685   32.0001   17.1497 C   0  0  0  0  0  2  0  0  0  0  0  0
   17.0150   33.1796   15.3899 C   0  0  0  0  0  0  0  0  0  0  0  0
   15.4462   33.4532   17.2964 C   0  0  0  0  0  2  0  0  0  0  0  0
   19.2380   32.7515   14.3668 C   0  0  0  0  0  2  0  0  0  0  0  0
   17.9981   33.5607   14.5690 C   0  0  0  0  0  3  0  0  0  0  0  0
  1  5  1  0
  2  4  2  0
  3  7  1  0
  4  8  1  0
  5  7  1  0
  6  1  1  0
  6  3  1  0
  8  9  1  0
  9  6  2  0
M  RAD  6   1   3   4   2   5   3   7   3   8   3   9   2
M  END
$$$$

     RDKit          3D

 17 19  0  0  0  0  0  0  0  0999 V2000
   19.2483   29.3043   15.4352 C   0  0  0  0  0  0  0  0  0  0  0  0
   17.5595   31.5839   14.3676 C   0  0  0  0  0  0  0  0  0  0  0  0
   21.4896   31.5620   14.2959 O   0  0  0  0  0  1  0  0  0  0  0  0
   18.1320   34.9147   14.1462 O   0  0  0  0  0  0  0  0  0  0  0  0
   17.8547   32.5981   13.5666 C   0  0  0  0  0  3  0  0  0  0  0  0
   20.9847   30.2608   14.2951 C   0  0  1  0  0  0  0  0  0  0  0  0
   18.6037   28.7865   16.4273 N   0  0  0  0  0  2  0  0  0  0  0  0
   21.8682   29.3355   13.7185 O   0  0  0  0  0  0  0  0  0  0  0  0
   17.8872   33.7263   14.4793 C   0  0  0  0  0  0  0  0  0  0  0  0
   17.4162   32.0516   15.7497 C   0  0  0  0  0  3  0  0  0  0  0  0
   20.9320   29.0521   12.7028 C   0  0  0  0  0  3  0  0  0  0  0  0
   20.5217   27.7171   12.7894 O   0  0  0  0  0  1  0  0  0  0  0  0
   17.6106   33.3276   15.8126 N   0  0  0  0  0  0  0  0  0  0  0  0
   20.5079   29.8432   15.5616 O   0  0  0  0  0  0  0  0  0  0  0  0
   17.4376   30.1587   13.9209 C   0  0  0  0  0  2  0  0  0  0  0  0
   19.8975   30.0239   13.2658 C   0  0  0  0  0  3  0  0  0  0  0  0
   18.7405   29.3557   14.0407 C   0  0  0  0  0  3  0  0  0  0  0  0
  1  7  2  0
  2 10  1  0
  4  9  2  0
  5  9  1  0
  5  2  2  0
  6  3  1  1
  6 14  1  0
  8  6  1  0
  9 13  1  0
 11  8  1  0
 11 12  1  0
 11 16  1  0
 13 10  2  0
 14  1  1  0
 15  2  1  0
 16  6  1  0
 16 17  1  0
 17 15  1  0
 17  1  1  0
M  RAD  8   3   2   5   2   7   2  10   2  11   2  12   2  15   3  16   2
M  RAD  1  17   2
M  END
$$$$
/tmp/tmp5oekpuw5
     RDKit          3D

 20 21  0  0  1  0  0  0  0  0999 V2000
   20.4600   32.1599   17.0033 N   0  0  0  0  0  1  0  0  0  0  0  0
   18.6513   31.4686   15.6195 N   0  0  0  0  0  0  0  0  0  0  0  0
   19.4473   30.6678   14.6846 C   0  0  0  0  0  3  0  0  0  0  0  0
   21.5815   28.4034   10.9150 C   0  0  0  0  0  3  0  0  0  0  0  0
   17.6523   32.2981   14.9459 C   0  0  0  0  0  2  0  0  0  0  0  0
   16.5756   32.7242   15.9290 C   0  0  0  0  0  2  0  0  0  0  0  0
   19.3196   28.8263   11.9023 C   0  0  0  0  0  2  0  0  0  0  0  0
   15.6968   31.5421   16.2921 C   0  0  0  0  0  3  0  0  0  0  0  0
   14.3473   31.7019   15.6231 C   0  0  0  0  0  2  0  0  0  0  0  0
   20.8040   28.6547   12.2033 C   0  0  0  0  0  3  0  0  0  0  0  0
   18.9462   30.6747   13.3711 O   0  0  0  0  0  0  0  0  0  0  0  0
   18.5740   29.3517   13.1187 C   0  0  0  0  0  3  0  0  0  0  0  0
   22.8972   28.0446   11.2138 O   0  0  0  0  0  1  0  0  0  0  0  0
   22.0767   29.6045    8.9444 O   0  0  0  0  0  0  0  0  0  0  0  0
   20.9759   27.5812   13.0814 O   0  0  0  0  0  1  0  0  0  0  0  0
   14.5090   32.0376   17.0898 C   0  0  0  0  0  2  0  0  0  0  0  0
   21.5891   29.6322   10.0627 C   0  0  0  0  0  3  0  0  0  0  0  0
   17.0838   29.2917   12.8497 C   0  0  0  0  0  1  0  0  0  0  0  0
   20.5893   31.4716   14.7715 O   0  0  0  0  0  0  0  0  0  0  0  0
   19.8670   32.2603   15.6785 C   0  0  0  0  0  3  0  0  0  0  0  0
  2 20  1  0
  3 11  1  0
  3 19  1  0
  3  2  1  0
  4 13  1  0
  5  2  1  0
  5  6  1  0
  6  8  1  0
  7 10  1  0
  8  9  1  0
 10 15  1  0
 10  4  1  0
 12 18  1  0
 12  7  1  0
 12 11  1  0
 14 17  2  0
 16  8  1  0
 16  9  1  0
 17  4  1  0
 19 20  1  0
 20  1  1  0
M  RAD  8   1   3   3   2   4   2   5   3   6   3   7   3   8   2   9   3
M  RAD  8  10   2  12   2  13   2  15   2  16   3  17   2  18   2  20   2
M  END
$$$$
/tmp/tmpwayhu2tu
     RDKit          3D

 20 21  0  0  1  0  0  0  0  0999 V2000
   16.3334   32.3302   16.7571 C   0  0  0  0  0  3  0  0  0  0  0  0
   20.9968   30.6334   16.0203 O   0  0  0  0  0  1  0  0  0  0  0  0
   21.3799   30.7047   11.6929 C   0  0  0  0  0  0  0  0  0  0  0  0
   17.3040   32.7635   15.9548 C   0  0  0  0  0  0  0  0  0  0  0  0
   18.8747   30.2322   15.0772 N   0  0  0  0  0  2  0  0  0  0  0  0
   15.0044   33.0103   16.7962 C   0  0  0  0  0  3  0  0  0  0  0  0
   17.8621   33.7198   14.9012 C   0  0  0  0  0  2  0  0  0  0  0  0
   14.0184   32.1406   17.5470 C   0  0  0  0  0  1  0  0  0  0  0  0
   21.1355   30.3727   10.5042 O   0  0  0  0  0  0  0  0  0  0  0  0
   15.1173   34.3520   17.4954 C   0  0  0  0  0  1  0  0  0  0  0  0
   19.8727   31.7688   13.3367 C   0  0  0  0  0  2  0  0  0  0  0  0
   20.9425   29.5602   13.8636 C   0  0  0  0  0  3  0  0  0  0  0  0
   18.7690   31.5269   14.3763 C   0  0  0  0  0  3  0  0  0  0  0  0
   20.3629   30.4512   12.7558 C   0  0  0  0  0  3  0  0  0  0  0  0
   22.5935   31.3048   12.0065 O   0  0  0  0  0  1  0  0  0  0  0  0
   20.9931   28.0862   13.4506 C   0  0  0  0  0  2  0  0  0  0  0  0
   18.9537   27.1657   14.3027 O   0  0  0  0  0  1  0  0  0  0  0  0
   18.7152   32.6742   15.3734 C   0  0  0  0  0  3  0  0  0  0  0  0
   19.6220   27.5038   13.1267 C   0  0  0  0  0  2  0  0  0  0  0  0
   20.2570   29.7559   15.2244 C   0  0  0  0  0  3  0  0  0  0  0  0
  1  6  1  0
  4  1  2  0
  6  8  1  0
  7  4  1  0
  9  3  2  0
 10  6  1  0
 12 16  1  0
 12 20  1  0
 13 11  1  0
 13  5  1  0
 13 18  1  0
 14  3  1  0
 14 11  1  0
 14 12  1  0
 15  3  1  0
 18  7  1  0
 18  4  1  0
 19 17  1  0
 19 16  1  0
 20  5  1  0
 20  2  1  0
M  RAD  8   1   2   2   2   5   2   6   2   7   3   8   2  10   2  11   3
M  RAD  8  12   2  13   2  14   2  15   2  16   3  17   2  18   2  19   3
M  RAD  1  20   2
M  END
$$$$

     RDKit          3D

 11 12  0  0  0  0  0  0  0  0999 V2000
   18.9448   31.1891   13.1729 C   0  0  0  0  0  1  0  0  0  0  0  0
   16.8754   30.9391   17.2498 O   0  0  0  0  0  0  0  0  0  0  0  0
   18.8545   33.0893   15.7803 C   0  0  0  0  0  2  0  0  0  0  0  0
   14.6063   34.5869   16.6665 C   0  0  0  0  0  2  0  0  0  0  0  0
   16.8611   31.6917   16.2881 C   0  0  0  0  0  0  0  0  0  0  0  0
   20.3357   32.9317   15.4961 C   0  0  0  0  0  1  0  0  0  0  0  0
   15.1317   33.2539   17.1618 C   0  0  0  0  0  3  0  0  0  0  0  0
   17.7646   31.7223   13.9620 C   0  0  0  0  0  2  0  0  0  0  0  0
   18.1020   31.8069   15.4469 C   0  0  0  0  0  3  0  0  0  0  0  0
   15.8213   33.9491   16.0220 C   0  0  0  0  0  3  0  0  0  0  0  0
   15.5984   32.4461   15.9606 C   0  0  0  0  0  3  0  0  0  0  0  0
  1  8  1  0
  3  6  1  0
  5  2  2  0
  7  4  1  0
  8  9  1  0
  9  3  1  0
  9  5  1  0
 10  4  1  0
 10  7  1  0
 11  5  1  0
 11 10  1  0
 11  7  1  0
M  RAD  8   1   2   3   3   4   3   6   2   7   2   8   3   9   2  10   2
M  RAD  1  11   2
M  END
$$$$

     RDKit          3D

 12 13  0  0  0  0  0  0  0  0999 V2000
   14.9540   32.6515   15.9096 C   0  0  0  0  0  2  0  0  0  0  0  0
   21.0032   30.6102   16.2328 C   0  0  0  0  0  2  0  0  0  0  0  0
   20.0882   33.0201   17.9410 C   0  0  0  0  0  1  0  0  0  0  0  0
   16.1877   32.0431   15.2747 C   0  0  0  0  0  3  0  0  0  0  0  0
   16.6758   32.9601   14.1690 C   0  0  0  0  0  2  0  0  0  0  0  0
   17.6896   32.2483   13.2866 C   0  0  0  0  0  2  0  0  0  0  0  0
   20.1399   31.7711   15.7956 C   0  0  0  0  0  3  0  0  0  0  0  0
   19.6396   31.7603   17.2212 C   0  0  0  0  0  3  0  0  0  0  0  0
   19.0710   32.2540   13.9218 C   0  0  0  0  0  2  0  0  0  0  0  0
   19.1339   31.3078   14.9466 O   0  0  0  0  0  0  0  0  0  0  0  0
   20.4956   30.6438   17.5979 N   0  0  0  0  0  2  0  0  0  0  0  0
   16.2935   32.7698   16.6002 C   0  0  0  0  0  2  0  0  0  0  0  0
  1  4  1  0
  1 12  1  0
  2 11  1  0
  4 12  1  0
  5  4  1  0
  6  9  1  0
  6  5  1  0
  7 10  1  0
  7  2  1  0
  7  8  1  0
  8  3  1  0
  8 11  1  0
  9 10  1  0
M  RAD  8   1   3   2   3   3   2   4   2   5   3   6   3   7   2   8   2
M  RAD  3   9   3  11   2  12   3
M  END
$$$$
/tmp/tmpvgfigs1o
     RDKit          3D

 20 20  0  0  1  0  0  0  0  0999 V2000
   22.9967   32.2604   15.0619 C   0  0  0  0  0  2  0  0  0  0  0  0
   23.0565   33.2901   13.9464 C   0  0  0  0  0  2  0  0  0  0  0  0
   20.3657   28.8104   14.4814 N   0  0  0  0  0  1  0  0  0  0  0  0
   16.1404   28.4921   13.2221 O   0  0  0  0  0  0  0  0  0  0  0  0
   16.7444   28.7448   12.0055 N   0  0  0  0  0  0  0  0  0  0  0  0
   17.7194   31.9903   16.0760 C   0  0  0  0  0  3  0  0  0  0  0  0
   18.3595   32.0770   14.6973 C   0  0  0  0  0  2  0  0  0  0  0  0
   20.6944   31.1386   16.6805 O   0  0  0  0  0  1  0  0  0  0  0  0
   18.1947   33.1530   16.9293 C   0  0  0  0  0  1  0  0  0  0  0  0
   20.7554   31.6325   15.3739 C   0  0  0  0  0  3  0  0  0  0  0  0
   19.2128   29.6564   14.7461 C   0  0  0  0  0  3  0  0  0  0  0  0
   22.0097   31.2371   14.7510 N   0  0  0  0  0  2  0  0  0  0  0  0
   18.0633   29.2636   12.3802 C   0  0  0  0  0  2  0  0  0  0  0  0
   16.9360   28.7720   14.3157 C   0  0  0  0  0  3  0  0  0  0  0  0
   16.2100   32.0425   15.9256 C   0  0  0  0  0  2  0  0  0  0  0  0
   18.0798   29.2275   13.8692 C   0  0  0  0  0  0  0  0  0  0  0  0
   15.5360   31.5331   17.1855 C   0  0  0  0  0  1  0  0  0  0  0  0
   23.5679   32.7059   12.7875 O   0  0  0  0  0  1  0  0  0  0  0  0
   16.0159   29.8401   11.3872 C   0  0  0  0  0  1  0  0  0  0  0  0
   19.5666   31.1436   14.5366 C   0  0  0  0  0  3  0  0  0  0  0  0
  2  1  1  0
  4 14  1  0
  5  4  1  0
  5 13  1  0
  6 15  1  0
  6  9  1  0
  7  6  1  0
 10 20  1  0
 10  8  1  0
 11  3  1  0
 12 10  1  0
 12  1  1  0
 13 16  1  0
 14 16  2  0
 15 17  1  0
 16 11  1  0
 18  2  1  0
 19  5  1  0
 20 11  1  0
 20  7  1  0
M  RAD  8   1   3   2   3   3   3   6   2   7   3   8   2   9   2  10   2
M  RAD  8  11   2  12   2  13   3  14   2  15   3  17   2  18   2  19   2
M  RAD  1  20   2
M  END
$$$$
/tmp/tmpzt21h9dn
     RDKit          3D

 20 20  0  0  1  0  0  0  0  0999 V2000
   19.8683   30.2255   17.0499 O   0  0  0  0  0  1  0  0  0  0  0  0
   20.1505   28.6218   12.9479 C   0  0  2  0  0  0  0  0  0  0  0  0
   16.7932   34.4639   16.2495 C   0  0  0  0  0  3  0  0  0  0  0  0
   16.5010   35.9760   14.4258 O   0  0  0  0  0  1  0  0  0  0  0  0
   15.7984   33.7606   18.0061 I   0  0  0  0  0  0  0  0  0  0  0  0
   19.9482   28.7535   14.4462 C   0  0  0  0  0  2  0  0  0  0  0  0
   18.9720   31.4934   15.2249 C   0  0  0  0  0  2  0  0  0  0  0  0
   18.8536   28.3093   12.2561 C   0  0  0  0  0  0  0  0  0  0  0  0
   21.4498   30.5420   13.6753 C   0  0  0  0  0  2  0  0  0  0  0  0
   21.0927   27.6144   12.7088 O   0  0  0  0  0  1  0  0  0  0  0  0
   17.8195   28.9812   12.5252 O   0  0  0  0  0  0  0  0  0  0  0  0
   20.6822   29.9765   12.4989 C   0  0  0  0  0  3  0  0  0  0  0  0
   18.7999   27.2820   11.2629 N   0  0  0  0  0  2  0  0  0  0  0  0
   20.2084   30.8555   15.8508 C   0  0  0  0  0  3  0  0  0  0  0  0
   18.5146   32.6763   16.0542 C   0  0  0  0  0  2  0  0  0  0  0  0
   17.2813   33.2880   15.4202 C   0  0  0  0  0  2  0  0  0  0  0  0
   20.8924   29.8565   14.9142 C   0  0  0  0  0  3  0  0  0  0  0  0
   21.5126   29.8662   11.3812 O   0  0  0  0  0  1  0  0  0  0  0  0
   15.8204   35.2997   15.4388 C   0  0  0  0  0  2  0  0  0  0  0  0
   17.5732   26.9589   10.5543 C   0  0  0  0  0  1  0  0  0  0  0  0
  2 10  1  1
  2 12  1  0
  2  6  1  0
  3  5  1  0
  4 19  1  0
  6 17  1  0
  7 15  1  0
  7 14  1  0
  8  2  1  0
  9 17  1  0
 11  8  2  0
 12 18  1  0
 12  9  1  0
 13 20  1  0
 13  8  1  0
 14  1  1  0
 15 16  1  0
 16  3  1  0
 17 14  1  0
 19  3  1  0
M  RAD  8   1   2   3   2   4   2   6   3   7   3   9   3  10   2  12   2
M  RAD  8  13   2  14   2  15   3  16   3  17   2  18   2  19   3  20   2
M  END
$$$$

     RDKit          3D

 14 15  0  0  0  0  0  0  0  0999 V2000
   19.4595   28.4825   12.7690 C   0  0  0  0  0  2  0  0  0  0  0  0
   22.0138   30.8277   14.2091 C   0  0  0  0  0  3  0  0  0  0  0  0
   22.8465   32.0270   14.6206 C   0  0  0  0  0  1  0  0  0  0  0  0
   19.1620   28.3495   15.2525 C   0  0  0  0  0  3  0  0  0  0  0  0
   19.4328   27.7641   14.0770 C   0  0  0  0  0  3  0  0  0  0  0  0
   21.1146   30.1829   11.9265 C   0  0  0  0  0  2  0  0  0  0  0  0
   18.7836   29.7957   15.4712 C   0  0  0  0  0  3  0  0  0  0  0  0
   19.3227   32.6771   13.6482 O   0  0  0  0  0  1  0  0  0  0  0  0
   19.8333   30.8566   15.0913 C   0  0  0  0  0  3  0  0  0  0  0  0
   21.1962   30.3881   15.3350 N   0  0  0  0  0  2  0  0  0  0  0  0
   19.7122   31.3383   13.6569 C   0  0  0  0  0  3  0  0  0  0  0  0
   20.9063   28.7415   12.3862 C   0  0  0  0  0  2  0  0  0  0  0  0
   17.5328   30.0765   14.9154 O   0  0  0  0  0  1  0  0  0  0  0  0
   21.0916   31.2104   13.0650 C   0  0  0  0  0  3  0  0  0  0  0  0
  1  5  1  0
  2  3  1  0
  2 10  1  0
  4  7  1  0
  5  4  2  0
  7  9  1  0
  7 13  1  0
  9 10  1  0
 11  8  1  0
 11  9  1  0
 12  6  1  0
 12  1  1  0
 14  6  1  0
 14 11  1  0
 14  2  1  0
M  RAD  8   1   3   2   2   3   2   4   2   5   2   6   3   7   2   8   2
M  RAD  6   9   2  10   2  11   2  12   3  13   2  14   2
M  END
$$$$
/tmp/tmpcgrjufen
     RDKit          3D

 20 21  0  0  1  0  0  0  0  0999 V2000
   19.5447   28.6063   15.7152 N   0  0  0  0  0  1  0  0  0  0  0  0
   21.1054   31.3976   14.0144 C   0  0  0  0  0  2  0  0  0  0  0  0
   20.4792   30.2992   11.7557 C   0  0  0  0  0  3  0  0  0  0  0  0
   17.9457   31.0513   15.4867 C   0  0  0  0  0  3  0  0  0  0  0  0
   18.7734   33.3838   15.2766 O   0  0  0  0  0  1  0  0  0  0  0  0
   18.1723   33.5304   18.2876 C   0  0  0  0  0  2  0  0  0  0  0  0
   18.8643   28.5866   11.4331 O   0  0  0  0  0  1  0  0  0  0  0  0
   21.2001   29.9554   14.5246 C   0  0  0  0  0  3  0  0  0  0  0  0
   19.0610   29.8052   12.0926 C   0  0  0  0  0  3  0  0  0  0  0  0
   18.4667   32.4546   17.5618 C   0  0  0  0  0  3  0  0  0  0  0  0
   20.9529   31.5528   12.4967 C   0  0  0  0  0  3  0  0  0  0  0  0
   19.9222   29.1012   14.3990 C   0  0  0  0  0  3  0  0  0  0  0  0
   18.1805   32.4204   16.0975 C   0  0  2  0  0  0  0  0  0  0  0  0
   17.2783   28.6033   13.7697 S   0  0  0  0  0  1  0  0  0  0  0  0
   18.3236   31.0363   14.0738 N   0  0  0  0  0  2  0  0  0  0  0  0
   20.6016   30.4948   10.3789 O   0  0  0  0  0  1  0  0  0  0  0  0
   16.7841   32.0234   15.6916 C   0  0  0  0  0  2  0  0  0  0  0  0
   20.1329   32.6449   12.2074 O   0  0  0  0  0  1  0  0  0  0  0  0
   18.7087   29.6934   13.6056 C   0  0  2  0  0  0  0  0  0  0  0  0
   22.2895   29.2933   13.9564 O   0  0  0  0  0  1  0  0  0  0  0  0
  3 16  1  0
  3  9  1  0
  3 11  1  0
  4 15  1  0
  4 13  1  0
  4 17  1  0
  6 10  2  0
  8 20  1  0
  8  2  1  0
  8 12  1  0
  9  7  1  0
  9 19  1  0
 11 18  1  0
 11  2  1  0
 12  1  1  0
 13  5  1  6
 13 17  1  0
 13 10  1  0
 19 14  1  6
 19 12  1  0
 19 15  1  0
M  RAD  8   1   3   2   3   3   2   4   2   5   2   6   3   7   2   8   2
M  RAD  8   9   2  10   2  11   2  12   2  14   2  15   2  16   2  17   3
M  RAD  2  18   2  20   2
M  END
$$$$
/tmp/tmppdlt2y1u
     RDKit          3D

 20 22  0  0  1  0  0  0  0  0999 V2000
   20.0346   28.6161   15.7685 C   0  0  0  0  0  2  0  0  0  0  0  0
   18.8430   29.2239   15.1855 N   0  0  0  0  0  2  0  0  0  0  0  0
   16.2300   34.1642   16.3927 C   0  0  0  0  0  2  0  0  0  0  0  0
   21.4469   29.9751   14.4621 C   0  0  0  0  0  2  0  0  0  0  0  0
   20.6071   29.1815   13.5587 C   0  0  0  0  0  3  0  0  0  0  0  0
   15.5503   34.8661   17.5502 C   0  0  0  0  0  1  0  0  0  0  0  0
   16.3067   32.6672   16.6738 C   0  0  0  0  0  3  0  0  0  0  0  0
   17.8682   32.6785   14.6575 C   0  0  0  0  0  2  0  0  0  0  0  0
   18.6007   28.3531   11.5970 C   0  0  0  0  0  1  0  0  0  0  0  0
   19.9362   32.8445   13.3241 C   0  0  0  0  0  0  0  0  0  0  0  0
   17.1719   31.8832   15.7610 C   0  0  0  0  0  3  0  0  0  0  0  0
   21.1894   33.1938   13.8080 O   0  0  0  0  0  1  0  0  0  0  0  0
   18.6211   30.7424   13.2508 C   0  0  0  0  0  2  0  0  0  0  0  0
   18.3996   28.2629   13.0411 N   0  0  0  0  0  0  0  0  0  0  0  0
   17.9560   32.2567   17.3846 S   0  0  0  0  0  0  0  0  0  0  0  0
   16.9593   28.3263   13.2708 C   0  0  0  0  0  1  0  0  0  0  0  0
   19.0994   29.3570   13.7560 C   0  0  2  0  0  0  0  0  0  0  0  0
   19.5307   33.3296   12.2340 O   0  0  0  0  0  0  0  0  0  0  0  0
   21.1238   28.5813   14.7966 N   0  0  0  0  0  0  0  0  0  0  0  0
   19.0710   31.9195   14.1159 C   0  0  0  0  0  3  0  0  0  0  0  0
  2  1  1  0
  3  6  1  0
  5  4  1  0
  5 19  1  0
  7 15  1  0
  7  3  1  0
  9 14  1  0
 10 20  1  0
 11  8  1  0
 11  7  1  0
 11 15  1  0
 12 10  1  0
 14 16  1  0
 14 17  1  0
 17 13  1  6
 17  5  1  0
 17  2  1  0
 18 10  2  0
 19  4  1  0
 19  1  1  0
 20 13  1  0
 20  8  1  0
M  RAD  8   1   3   2   2   3   3   4   3   5   2   6   2   7   2   8   3
M  RAD  6   9   2  11   2  12   2  13   3  16   2  20   2
M  END
$$$$
/tmp/tmp_lox1azb
     RDKit          3D

 20 22  0  0  1  0  0  0  0  0999 V2000
   18.0777   32.4640   15.9159 C   0  0  0  0  0  3  0  0  0  0  0  0
   18.1144   32.7938   14.1292 S   0  0  0  0  0  0  0  0  0  0  0  0
   19.0305   29.4768   12.1036 C   0  0  2  0  0  0  0  0  0  0  0  0
   18.6761   28.0567   12.3045 C   0  0  0  0  0  0  0  0  0  0  0  0
   20.7350   30.5859   15.1095 O   0  0  0  0  0  1  0  0  0  0  0  0
   16.6551   30.7049   13.5576 O   0  0  0  0  0  0  0  0  0  0  0  0
   18.9422   30.0672   13.5338 C   0  0  1  0  0  0  0  0  0  0  0  0
   18.8081   33.5641   16.6537 C   0  0  0  0  0  2  0  0  0  0  0  0
   18.1619   30.0834   11.1904 O   0  0  0  0  0  1  0  0  0  0  0  0
   16.2999   31.1922   16.8544 O   0  0  0  0  0  1  0  0  0  0  0  0
   20.4715   29.6202   11.6360 C   0  0  0  0  0  2  0  0  0  0  0  0
   21.2862   29.9799   12.8611 C   0  0  0  0  0  2  0  0  0  0  0  0
   17.8119   31.0693   13.7081 C   0  0  0  0  0  0  0  0  0  0  0  0
   18.6938   28.8577   14.4686 C   0  0  0  0  0  2  0  0  0  0  0  0
   18.0475   33.7507   17.9441 C   0  0  0  0  0  2  0  0  0  0  0  0
   20.3211   30.6940   13.7790 C   0  0  0  0  0  3  0  0  0  0  0  0
   18.5622   27.2140   11.3757 O   0  0  0  0  0  0  0  0  0  0  0  0
   16.6081   33.4296   17.6069 C   0  0  0  0  0  2  0  0  0  0  0  0
   16.6476   32.4737   16.4285 C   0  0  0  0  0  3  0  0  0  0  0  0
   18.4901   27.7358   13.6284 O   0  0  0  0  0  0  0  0  0  0  0  0
  1  2  1  0
  1  8  1  0
  1 19  1  0
  2 13  1  0
  3  9  1  6
  3 11  1  0
  3  7  1  0
  4  3  1  0
  4 20  1  0
  7 14  1  0
  7 13  1  6
  7 16  1  0
  8 15  1  0
 11 12  1  0
 12 16  1  0
 13  6  2  0
 16  5  1  0
 17  4  2  0
 18 15  1  0
 18 19  1  0
 19 10  1  0
 20 14  1  0
M  RAD  8   1   2   5   2   8   3   9   2  10   2  11   3  12   3  14   3
M  RAD  4  15   3  16   2  18   3  19   2
M  END
$$$$
/tmp/tmpsjg1knt9
     RDKit          3D

 20 20  0  0  1  0  0  0  0  0999 V2000
   19.9297   31.7750   15.0159 C   0  0  0  0  0  3  0  0  0  0  0  0
   19.8133   26.9498   11.9856 C   0  0  0  0  0  1  0  0  0  0  0  0
   17.1365   33.8889   16.5646 C   0  0  0  0  0  3  0  0  0  0  0  0
   19.6292   29.5109   13.8457 C   0  0  0  0  0  3  0  0  0  0  0  0
   17.8134   33.0066   15.5364 C   0  0  0  0  0  3  0  0  0  0  0  0
   19.2366   32.7321   15.9855 C   0  0  0  0  0  2  0  0  0  0  0  0
   17.3309   28.8338   14.0190 O   0  0  0  0  0  1  0  0  0  0  0  0
   22.0071   31.7328   16.5011 C   0  0  0  0  0  1  0  0  0  0  0  0
   17.3407   26.9950   11.9758 C   0  0  0  0  0  2  0  0  0  0  0  0
   21.4631   31.8513   15.0853 C   0  0  0  0  0  3  0  0  0  0  0  0
   18.5956   27.8234   12.2441 C   0  0  0  0  0  3  0  0  0  0  0  0
   15.9990   34.6334   15.8984 C   0  0  0  0  0  1  0  0  0  0  0  0
   19.6898   29.6249   16.4117 C   0  0  0  0  0  1  0  0  0  0  0  0
   16.8467   32.4035   16.5334 C   0  0  0  0  0  2  0  0  0  0  0  0
   18.6084   28.3690   13.6824 C   0  0  0  0  0  3  0  0  0  0  0  0
   21.0625   28.9901   13.8201 C   0  0  0  0  0  1  0  0  0  0  0  0
   17.0848   26.8446   10.4839 C   0  0  0  0  0  2  0  0  0  0  0  0
   19.3624   30.3486   15.1077 C   0  0  0  0  0  3  0  0  0  0  0  0
   21.9582   33.1374   14.4528 C   0  0  0  0  0  1  0  0  0  0  0  0
   16.5580   28.1439    9.9046 C   0  0  0  0  0  1  0  0  0  0  0  0
  1  6  1  0
  1 10  1  0
  1 18  1  0
  3 12  1  0
  3 14  1  0
  4 16  1  0
  4 18  1  0
  5  6  1  0
  5  3  1  0
  5 14  1  0
  9 11  1  0
 10  8  1  0
 11  2  1  0
 11 15  1  0
 15  4  1  0
 15  7  1  0
 17  9  1  0
 18 13  1  0
 19 10  1  0
 20 17  1  0
M  RAD  8   1   2   2   2   3   2   4   2   5   2   6   3   7   2   8   2
M  RAD  8   9   3  10   2  11   2  12   2  13   2  14   3  15   2  16   2
M  RAD  4  17   3  18   2  19   2  20   2
M  END
$$$$
/tmp/tmpwvoayuug
     RDKit          3D

 20 21  0  0  1  0  0  0  0  0999 V2000
   15.3776   33.4449   17.7943 C   0  0  0  0  0  2  0  0  0  0  0  0
   20.2517   30.9014   17.5657 O   0  0  0  0  0  1  0  0  0  0  0  0
   21.0324   32.6415   12.8951 O   0  0  0  0  0  0  0  0  0  0  0  0
   17.1250   32.8302   16.1341 C   0  0  0  0  0  2  0  0  0  0  0  0
   20.3044   31.7515   12.4742 C   0  0  0  0  0  0  0  0  0  0  0  0
   19.3242   30.6838   14.5698 C   0  0  1  0  0  0  0  0  0  0  0  0
   18.8550   32.1396   14.4980 C   0  0  0  0  0  3  0  0  0  0  0  0
   15.6682   32.4151   18.6898 O   0  0  0  0  0  1  0  0  0  0  0  0
   21.5891   29.6478   14.4662 C   0  0  0  0  0  1  0  0  0  0  0  0
   21.9578   30.3953   11.2161 C   0  0  0  0  0  1  0  0  0  0  0  0
   19.0564   31.3373   13.2140 C   0  0  0  0  0  3  0  0  0  0  0  0
   20.6745   30.5768   15.2462 C   0  0  0  0  0  3  0  0  0  0  0  0
   20.3495   29.9198   16.5794 C   0  0  0  0  0  3  0  0  0  0  0  0
   18.3344   29.7033   15.1608 C   0  0  0  0  0  2  0  0  0  0  0  0
   17.3625   32.3421   14.7203 C   0  0  0  0  0  2  0  0  0  0  0  0
   19.2144   27.7126   16.3487 C   0  0  0  0  0  1  0  0  0  0  0  0
   15.6359   32.9840   16.3720 C   0  0  0  0  0  2  0  0  0  0  0  0
   20.6109   31.0910   11.1668 C   0  0  0  0  0  3  0  0  0  0  0  0
   20.6094   32.0378   10.1424 O   0  0  0  0  0  1  0  0  0  0  0  0
   18.9988   29.2101   16.4381 C   0  0  0  0  0  3  0  0  0  0  0  0
  1  8  1  0
  3  5  2  0
  4 17  1  0
  6 14  1  1
  6 12  1  0
  7 15  1  0
  7  6  1  0
 11  5  1  0
 11  7  1  0
 11  6  1  0
 12  9  1  0
 13 12  1  0
 13  2  1  0
 15  4  1  0
 17  1  1  0
 18  5  1  0
 18 10  1  0
 19 18  1  0
 20 16  1  0
 20 14  1  0
 20 13  1  0
M  RAD  8   1   3   2   2   4   3   7   2   8   2   9   2  10   2  11   2
M  RAD  8  12   2  13   2  14   3  15   3  16   2  17   3  18   2  19   2
M  RAD  1  20   2
M  END
$$$$

     RDKit          3D

 12 12  0  0  0  0  0  0  0  0999 V2000
   19.6345   29.3191   16.1677 N   0  0  0  0  0  1  0  0  0  0  0  0
   18.7904   32.1146   16.4392 C   0  0  0  0  0  2  0  0  0  0  0  0
   16.4073   31.8697   15.9648 C   0  0  0  0  0  2  0  0  0  0  0  0
   17.4879   34.6289   15.3869 I   0  0  0  0  0  0  0  0  0  0  0  0
   21.2888   30.7851   15.1479 C   0  0  0  0  0  2  0  0  0  0  0  0
   17.4537   32.8150   16.5223 C   0  0  0  0  0  3  0  0  0  0  0  0
   21.6786   31.4318   13.8627 C   0  0  0  0  0  0  0  0  0  0  0  0
   18.8374   31.3917   15.1051 C   0  0  0  0  0  3  0  0  0  0  0  0
   19.8628   30.2548   15.0774 C   0  0  0  0  0  3  0  0  0  0  0  0
   22.1547   30.7378   12.9272 O   0  0  0  0  0  0  0  0  0  0  0  0
   17.1691   30.7845   14.7145 S   0  0  0  0  0  0  0  0  0  0  0  0
   21.4848   32.7951   13.6844 O   0  0  0  0  0  1  0  0  0  0  0  0
  2  6  1  0
  3  6  1  0
  5  9  1  0
  6  4  1  0
  7 12  1  0
  7  5  1  0
  8  9  1  0
  8  2  1  0
  9  1  1  0
 10  7  2  0
 11  8  1  0
 11  3  1  0
M  RAD  8   1   3   2   3   3   3   5   3   6   2   8   2   9   2  12   2
M  END
$$$$

     RDKit          3D

 13 14  0  0  0  0  0  0  0  0999 V2000
   21.9121   29.8724   15.2295 O   0  0  0  0  0  0  0  0  0  0  0  0
   19.7927   29.5171   12.7598 C   0  0  1  0  0  0  0  0  0  0  0  0
   18.6015   31.0837   14.3763 C   0  0  0  0  0  2  0  0  0  0  0  0
   22.2995   29.2857   12.2844 C   0  0  0  0  0  2  0  0  0  0  0  0
   20.0686   28.5975   13.8260 O   0  0  0  0  0  0  0  0  0  0  0  0
   21.5893   28.1646   11.5515 C   0  0  0  0  0  2  0  0  0  0  0  0
   19.3597   30.7212   15.6410 C   0  0  0  0  0  2  0  0  0  0  0  0
   19.5250   30.9959   13.1711 C   0  0  0  0  0  3  0  0  0  0  0  0
   20.4974   29.3456   15.3064 P   0  0  2  0  0  0  0  0  0  0  0  0
   20.3912   28.2153   16.5592 O   0  0  0  0  0  1  0  0  0  0  0  0
   20.9181   29.5208   11.6994 C   0  0  0  0  0  3  0  0  0  0  0  0
   19.0004   31.7424   12.1115 O   0  0  0  0  0  1  0  0  0  0  0  0
   18.5457   28.9888   12.0598 C   0  0  0  0  0  1  0  0  0  0  0  0
  2 13  1  6
  2  8  1  0
  2  5  1  0
  3  7  1  0
  5  9  1  0
  6  4  1  0
  7  9  1  0
  8 12  1  0
  8  3  1  0
  9  1  2  0
  9 10  1  0
 11  6  1  0
 11  4  1  0
 11  2  1  0
M  RAD  8   3   3   4   3   6   3   7   3   8   2  10   2  11   2  12   2
M  RAD  1  13   2
M  END
$$$$
/tmp/tmprcajqhtx
     RDKit          3D

 20 21  0  0  1  0  0  0  0  0999 V2000
   17.2582   35.5718   17.9965 N   0  0  0  0  0  0  0  0  0  0  0  0
   19.9079   28.2549   10.2418 C   0  0  0  0  0  1  0  0  0  0  0  0
   19.6637   29.4893   14.9315 C   0  0  0  0  0  0  0  0  0  0  0  0
   19.7821   27.8925   11.7091 C   0  0  0  0  0  2  0  0  0  0  0  0
   19.2292   33.9860   16.9586 C   0  0  0  0  0  2  0  0  0  0  0  0
   19.2503   29.0517   12.4846 C   0  0  0  0  0  0  0  0  0  0  0  0
   20.1260   29.7091   13.5140 C   0  0  0  0  0  3  0  0  0  0  0  0
   17.9328   32.0664   15.9904 C   0  0  0  0  0  3  0  0  0  0  0  0
   19.7587   31.8611   12.5007 O   0  0  0  0  0  0  0  0  0  0  0  0
   17.7487   31.2080   14.7507 C   0  0  0  0  0  2  0  0  0  0  0  0
   18.5493   30.8812   16.7182 C   0  0  0  0  0  2  0  0  0  0  0  0
   20.4997   31.1308   13.2115 C   0  0  0  0  0  0  0  0  0  0  0  0
   20.3693   28.8106   15.6616 O   0  0  0  0  0  0  0  0  0  0  0  0
   18.3601   30.0257   15.4806 C   0  0  2  0  0  0  0  0  0  0  0  0
   18.1005   34.9353   17.1650 C   0  0  0  0  0  0  0  0  0  0  0  0
   17.1760   35.8220   16.6452 N   0  0  0  0  0  2  0  0  0  0  0  0
   17.4232   29.0144   15.6981 O   0  0  0  0  0  1  0  0  0  0  0  0
   18.9893   33.1306   15.7245 C   0  0  0  0  0  2  0  0  0  0  0  0
   18.1068   29.4386   12.2953 O   0  0  0  0  0  0  0  0  0  0  0  0
   21.6662   31.6581   13.7492 O   0  0  0  0  0  1  0  0  0  0  0  0
  3 13  2  0
  3 14  1  0
  4  6  1  0
  4  2  1  0
  5 15  1  0
  7  6  1  0
  7 12  1  0
  7  3  1  0
  8 18  1  0
  8 11  1  0
  9 12  2  0
 10 14  1  0
 10  8  1  0
 12 20  1  0
 14 11  1  0
 14 17  1  1
 15 16  1  0
 15  1  2  0
 16  1  1  0
 18  5  1  0
 19  6  2  0
M  RAD  8   2   2   4   3   5   3   7   2   8   2  10   3  11   3  16   2
M  RAD  3  17   2  18   3  20   2
M  END
$$$$

     RDKit          3D

 15 16  0  0  0  0  0  0  0  0999 V2000
   17.9579   29.9510   15.0677 C   0  0  0  0  0  0  0  0  0  0  0  0
   18.2698   31.3417   14.9091 N   0  0  0  0  0  2  0  0  0  0  0  0
   20.9519   32.3169   13.5129 O   0  0  0  0  0  1  0  0  0  0  0  0
   19.3139   28.5988   13.4996 C   0  0  0  0  0  3  0  0  0  0  0  0
   21.4949   29.9220   13.9361 C   0  0  0  0  0  2  0  0  0  0  0  0
   16.1072   31.9391   15.8781 C   0  0  0  0  0  2  0  0  0  0  0  0
   22.9021   31.4092   12.7218 O   0  0  0  0  0  0  0  0  0  0  0  0
   17.2287   32.3663   14.9358 C   0  0  0  0  0  2  0  0  0  0  0  0
   15.5915   30.5671   15.4461 C   0  0  0  0  0  2  0  0  0  0  0  0
   20.6397   29.1322   12.9404 C   0  0  0  0  0  3  0  0  0  0  0  0
   21.8325   31.2538   13.3660 C   0  0  0  0  0  0  0  0  0  0  0  0
   19.0396   28.9337   14.9700 C   0  0  0  0  0  2  0  0  0  0  0  0
   21.1348   27.3115   14.4900 O   0  0  0  0  0  1  0  0  0  0  0  0
   16.7125   29.5686   15.3630 C   0  0  0  0  0  3  0  0  0  0  0  0
   20.4938   27.6470   13.2895 C   0  0  0  0  0  3  0  0  0  0  0  0
  1  2  1  0
  2  8  1  0
  3 11  1  0
  4 12  1  0
  4 10  1  0
  4 15  1  0
  7 11  2  0
  8  6  1  0
  9  6  1  0
 10  5  1  0
 10 15  1  0
 11  5  1  0
 12  1  1  0
 14  1  2  0
 14  9  1  0
 15 13  1  0
M  RAD  8   2   2   3   2   4   2   5   3   6   3   8   3   9   3  10   2
M  RAD  4  12   3  13   2  14   2  15   2
M  END
$$$$
