/tmp/tmp206wx_br
     RDKit          3D

 20 20  0  0  1  0  0  0  0  0999 V2000
   -3.5600  -11.0367   14.5341 C   0  0  0  0  0  2  0  0  0  0  0  0
   -9.0985   -8.9199   21.6216 C   0  0  0  0  0  0  0  0  0  0  0  0
   -5.4417  -12.5323   15.3377 C   0  0  0  0  0  2  0  0  0  0  0  0
   -9.7598   -7.8356   22.2627 N   0  0  0  0  0  1  0  0  0  0  0  0
   -4.7541   -9.5119   17.3246 N   0  0  0  0  0  0  0  0  0  0  0  0
   -7.2146   -8.2101   20.2130 C   0  0  0  0  0  2  0  0  0  0  0  0
   -6.6150   -8.2730   16.7475 C   0  0  0  0  0  0  0  0  0  0  0  0
   -5.1984  -10.1886   16.2406 C   0  0  0  0  0  0  0  0  0  0  0  0
   -7.5910   -7.2397   16.8266 N   0  0  0  0  0  1  0  0  0  0  0  0
   -7.6165   -8.9159   21.4921 C   0  0  0  0  0  2  0  0  0  0  0  0
   -5.7036   -8.2261   20.0791 C   0  0  0  0  0  2  0  0  0  0  0  0
   -5.5423   -8.4421   17.6115 C   0  0  0  0  0  0  0  0  0  0  0  0
   -4.3134  -10.5752   13.2954 C   0  0  0  0  0  2  0  0  0  0  0  0
   -5.2758   -7.5552   18.7834 C   0  0  0  0  0  2  0  0  0  0  0  0
   -4.4895  -11.3922   15.6940 C   0  0  0  0  0  3  0  0  0  0  0  0
   -6.0408  -13.1594   16.5863 C   0  0  0  0  0  2  0  0  0  0  0  0
   -9.7704   -9.8668   21.1367 O   0  0  0  0  0  0  0  0  0  0  0  0
   -6.5870   -9.4808   15.5832 S   0  0  0  0  0  0  0  0  0  0  0  0
   -5.0544  -13.8452   17.2956 O   0  0  0  0  0  1  0  0  0  0  0  0
   -3.3242  -10.2325   12.2021 C   0  0  0  0  0  1  0  0  0  0  0  0
  2  4  1  0
  3 16  1  0
  7 12  2  0
  8  5  2  0
  9  7  1  0
 10  6  1  0
 10  2  1  0
 11  6  1  0
 12  5  1  0
 12 14  1  0
 13  1  1  0
 14 11  1  0
 15  1  1  0
 15  8  1  0
 15  3  1  0
 16 19  1  0
 17  2  2  0
 18  7  1  0
 18  8  1  0
 20 13  1  0
M  RAD  8   1   3   3   3   4   3   6   3   9   3  10   3  11   3  13   3
M  RAD  5  14   3  15   2  16   3  19   2  20   2
M  END
$$$$
/tmp/tmpfrmvdris
     RDKit          3D

 20 22  0  0  1  0  0  0  0  0999 V2000
   -5.2276  -12.3174   17.4770 C   0  0  0  0  0  0  0  0  0  0  0  0
   -5.9657   -8.1800   16.6647 C   0  0  0  0  0  0  0  0  0  0  0  0
   -4.2557  -13.6187   15.6175 C   0  0  0  0  0  1  0  0  0  0  0  0
   -7.2121  -12.3656   18.5432 C   0  0  0  0  0  3  0  0  0  0  0  0
   -8.1760   -9.6689   19.7500 C   0  0  0  0  0  2  0  0  0  0  0  0
   -5.7125   -7.1328   17.6024 N   0  0  0  0  0  2  0  0  0  0  0  0
   -6.6991   -6.7290   18.5908 C   0  0  0  0  0  3  0  0  0  0  0  0
   -6.3888  -12.9609   17.4993 C   0  0  0  0  0  3  0  0  0  0  0  0
   -7.0200  -10.5359   20.2216 C   0  0  0  0  0  2  0  0  0  0  0  0
   -4.9587   -8.6328   15.6836 C   0  0  0  0  0  2  0  0  0  0  0  0
   -4.1758  -12.5975   16.6018 O   0  0  0  0  0  0  0  0  0  0  0  0
   -6.0367   -5.8867   19.6613 C   0  0  0  0  0  2  0  0  0  0  0  0
   -7.0747   -9.8173   15.5748 C   0  0  0  0  0  2  0  0  0  0  0  0
   -7.5672   -7.4722   20.7678 C   0  0  0  0  0  3  0  0  0  0  0  0
   -6.3355   -7.3473   19.9257 C   0  0  0  0  0  3  0  0  0  0  0  0
   -7.0885   -8.8055   16.6123 N   0  0  0  0  0  0  0  0  0  0  0  0
   -5.1672  -11.2428   18.5017 C   0  0  0  0  0  2  0  0  0  0  0  0
   -8.3943   -8.5242   20.6920 C   0  0  0  0  0  3  0  0  0  0  0  0
   -5.6869   -9.7449   14.9427 C   0  0  0  0  0  2  0  0  0  0  0  0
   -6.5201  -11.3835   19.1030 C   0  0  0  0  0  0  0  0  0  0  0  0
  1  8  2  0
  1 17  1  0
  2  6  1  0
  3 11  1  0
  4 20  2  0
  5 18  1  0
  7  6  1  0
  7 12  1  0
  7 15  1  0
  8  4  1  0
  9  5  1  0
 10  2  1  0
 11  1  1  0
 12 15  1  0
 13 19  1  0
 13 16  1  0
 14 18  2  0
 15 14  1  0
 16  2  2  0
 17 20  1  0
 19 10  1  0
 20  9  1  0
M  RAD  8   3   2   4   2   5   3   6   2   7   2   8   2   9   3  10   3
M  RAD  7  12   3  13   3  14   2  15   2  17   3  18   2  19   3
M  END
$$$$
/tmp/tmpk64237bq
     RDKit          3D

 20 22  0  0  1  0  0  0  0  0999 V2000
   -5.9463   -8.2062   20.3861 C   0  0  0  0  0  0  0  0  0  0  0  0
   -9.4254   -9.1926   20.3614 C   0  0  0  0  0  3  0  0  0  0  0  0
   -3.8687  -10.0539   15.1674 N   0  0  0  0  0  2  0  0  0  0  0  0
   -4.7263   -8.9149   17.1624 C   0  0  0  0  0  3  0  0  0  0  0  0
   -7.3157   -8.6257   20.6643 C   0  0  0  0  0  0  0  0  0  0  0  0
   -9.3743  -12.8752   16.6027 O   0  0  0  0  0  0  0  0  0  0  0  0
   -8.3615   -8.8121   19.6636 C   0  0  0  0  0  3  0  0  0  0  0  0
   -8.0316  -12.5025   16.6387 C   0  0  0  0  0  2  0  0  0  0  0  0
   -6.4944  -10.6112   16.9006 C   0  0  0  0  0  3  0  0  0  0  0  0
   -4.5982   -7.6099   17.9582 C   0  0  0  0  0  3  0  0  0  0  0  0
   -4.9409   -7.8315   19.3941 C   0  0  0  0  0  0  0  0  0  0  0  0
   -6.1636   -9.3401   17.1139 C   0  0  0  0  0  3  0  0  0  0  0  0
   -3.2943   -7.1152   17.8827 O   0  0  0  0  0  1  0  0  0  0  0  0
   -9.3490  -14.2672   16.5300 C   0  0  0  0  0  1  0  0  0  0  0  0
   -2.8082   -9.1654   15.6595 C   0  0  0  0  0  2  0  0  0  0  0  0
   -7.9283  -11.0080   16.8578 C   0  0  0  0  0  2  0  0  0  0  0  0
   -9.0907   -9.2497   21.7441 N   0  0  0  0  0  2  0  0  0  0  0  0
   -7.7495   -8.8791   21.8499 N   0  0  0  0  0  0  0  0  0  0  0  0
   -4.4283   -7.8140   20.9969 S   0  0  0  0  0  0  0  0  0  0  0  0
   -4.2027   -8.7386   15.7378 C   0  0  0  0  0  3  0  0  0  0  0  0
  1  5  1  0
  2 17  1  0
  3 15  1  0
  3 20  1  0
  4 12  1  0
  4 10  1  0
  5 18  2  0
  6 14  1  0
  7  2  2  0
  7  5  1  0
  8  6  1  0
  9 16  1  0
  9 12  2  0
 10 13  1  0
 10 11  1  0
 11 19  1  0
 11  1  2  0
 15 20  1  0
 16  8  1  0
 17 18  1  0
 19  1  1  0
 20  4  1  0
M  RAD  8   2   2   3   2   4   2   7   2   8   3   9   2  10   2  12   2
M  RAD  6  13   2  14   2  15   3  16   3  17   2  20   2
M  END
$$$$
/tmp/tmpvo20_ksh
     RDKit          3D

 20 23  0  0  1  0  0  0  0  0999 V2000
   -7.9535   -6.8302   16.9589 C   0  0  0  0  0  3  0  0  0  0  0  0
   -5.7789  -10.6008   16.9618 C   0  0  0  0  0  3  0  0  0  0  0  0
   -6.6882   -6.6213   17.4592 C   0  0  0  0  0  3  0  0  0  0  0  0
   -7.3579   -7.8797   17.8400 N   0  0  0  0  0  0  0  0  0  0  0  0
   -7.2823   -9.8052   20.9761 N   0  0  0  0  0  0  0  0  0  0  0  0
   -7.3326   -8.3785   19.1250 C   0  0  0  0  0  0  0  0  0  0  0  0
   -6.7656   -7.3673   19.8429 C   0  0  0  0  0  0  0  0  0  0  0  0
   -3.7193  -11.5566   16.1237 C   0  0  0  0  0  0  0  0  0  0  0  0
   -6.4459   -6.1456   18.9483 C   0  0  0  0  0  2  0  0  0  0  0  0
   -8.0916  -10.7580   18.8223 C   0  0  0  0  0  2  0  0  0  0  0  0
   -7.0829  -11.8010   18.6832 N   0  0  0  0  0  2  0  0  0  0  0  0
   -7.5649   -9.6351   19.6519 C   0  0  0  0  0  0  0  0  0  0  0  0
   -3.8880  -12.6583   16.9675 C   0  0  0  0  0  3  0  0  0  0  0  0
   -5.0019  -12.7305   17.8097 C   0  0  0  0  0  3  0  0  0  0  0  0
   -2.5351  -11.4799   15.2294 C   0  0  0  0  0  1  0  0  0  0  0  0
   -4.6655  -10.5279   16.1201 C   0  0  0  0  0  3  0  0  0  0  0  0
   -6.4764   -7.5825   21.1853 C   0  0  0  0  0  3  0  0  0  0  0  0
   -6.7638   -8.8109   21.7165 N   0  0  0  0  0  0  0  0  0  0  0  0
   -9.0450   -6.0643   17.6954 C   0  0  0  0  0  1  0  0  0  0  0  0
   -5.9507  -11.7025   17.8136 C   0  0  0  0  0  0  0  0  0  0  0  0
  1 19  1  0
  1  4  1  0
  1  3  1  0
  2 20  2  0
  3  9  1  0
  4  3  1  0
  4  6  1  0
  5 18  2  0
  6 12  2  0
  6  7  1  0
  7 17  2  0
  8 16  2  0
  8 13  1  0
  9  7  1  0
 10 12  1  0
 11 10  1  0
 12  5  1  0
 13 14  2  0
 14 20  1  0
 15  8  1  0
 16  2  1  0
 17 18  1  0
 20 11  1  0
M  RAD  8   1   2   2   2   3   2   9   3  10   3  11   2  13   2  14   2
M  RAD  4  15   2  16   2  17   2  19   2
M  END
$$$$
/tmp/tmp2mfn8ka2
     RDKit          3D

 20 22  0  0  1  0  0  0  0  0999 V2000
   -7.9647   -6.4304   17.9231 N   0  0  0  0  0  2  0  0  0  0  0  0
   -4.3952  -10.9131   19.0068 C   0  0  0  0  0  1  0  0  0  0  0  0
   -7.6191  -11.0850   22.7467 N   0  0  0  0  0  0  0  0  0  0  0  0
   -6.8241   -7.0444   18.6153 C   0  0  0  0  0  3  0  0  0  0  0  0
   -4.1935  -10.9492   15.6410 C   0  0  0  0  0  3  0  0  0  0  0  0
   -7.2794   -7.5971   17.3472 C   0  0  0  0  0  3  0  0  0  0  0  0
   -7.5277  -11.8034   21.6762 C   0  0  0  0  0  3  0  0  0  0  0  0
   -4.7245  -12.0185   16.2386 C   0  0  0  0  0  3  0  0  0  0  0  0
   -6.3014   -7.1574   16.2721 C   0  0  0  0  0  2  0  0  0  0  0  0
   -6.1010   -9.3789   15.3498 C   0  0  0  0  0  2  0  0  0  0  0  0
   -7.3067   -7.9443   19.7293 C   0  0  0  0  0  2  0  0  0  0  0  0
   -6.7545  -11.4972   19.2700 N   0  0  0  0  0  0  0  0  0  0  0  0
   -4.6646   -9.5431   15.8346 C   0  0  0  0  0  2  0  0  0  0  0  0
   -5.8103  -11.9424   17.1692 N   0  0  0  0  0  2  0  0  0  0  0  0
   -6.8487  -11.0600   20.6350 C   0  0  0  0  0  0  0  0  0  0  0  0
   -6.5656   -9.8533   21.1047 C   0  0  0  0  0  0  0  0  0  0  0  0
   -5.7141  -11.4063   18.4930 C   0  0  0  0  0  0  0  0  0  0  0  0
   -6.1124   -8.6833   20.3016 C   0  0  0  0  0  2  0  0  0  0  0  0
   -6.4238   -7.9790   15.0687 N   0  0  0  0  0  2  0  0  0  0  0  0
   -7.0203   -9.7736   22.5212 C   0  0  0  0  0  2  0  0  0  0  0  0
  1  6  1  0
  1  4  1  0
  3 20  1  0
  4 11  1  0
  5 13  1  0
  5  8  2  0
  6  9  1  0
  6  4  1  0
  7  3  2  0
  8 14  1  0
 10 19  1  0
 12 15  1  0
 13 10  1  0
 14 17  1  0
 15  7  1  0
 15 16  2  0
 16 18  1  0
 16 20  1  0
 17 12  2  0
 17  2  1  0
 18 11  1  0
 19  9  1  0
M  RAD  8   1   2   2   2   4   2   5   2   6   2   7   2   8   2   9   3
M  RAD  7  10   3  11   3  13   3  14   2  18   3  19   2  20   3
M  END
$$$$
/tmp/tmpyy35zurm
     RDKit          3D

 20 21  0  0  1  0  0  0  0  0999 V2000
   -4.9225   -8.0989   21.6291 F   0  0  0  0  0  0  0  0  0  0  0  0
   -4.6970  -11.5084   17.9539 C   0  0  0  0  0  2  0  0  0  0  0  0
   -7.7761   -8.3304   21.8554 O   0  0  0  0  0  0  0  0  0  0  0  0
   -5.5394   -8.4902   16.3779 C   0  0  0  0  0  2  0  0  0  0  0  0
   -6.3872   -9.2010   18.6750 C   0  0  0  0  0  0  0  0  0  0  0  0
   -4.2589  -12.3739   16.7858 C   0  0  0  0  0  2  0  0  0  0  0  0
   -5.1321  -11.7227   14.5057 C   0  0  0  0  0  2  0  0  0  0  0  0
   -9.5201  -11.1737   18.4145 N   0  0  0  0  0  1  0  0  0  0  0  0
   -4.8629  -10.2465   14.7652 C   0  0  0  0  0  2  0  0  0  0  0  0
   -5.3512   -7.7111   20.3728 C   0  0  0  0  0  3  0  0  0  0  0  0
   -5.8086   -6.2649   20.4005 C   0  0  0  0  0  1  0  0  0  0  0  0
   -8.5129  -10.3114   18.9284 C   0  0  0  0  0  0  0  0  0  0  0  0
   -6.0450   -9.5850   15.4518 C   0  0  0  0  0  2  0  0  0  0  0  0
   -7.4503  -10.0637   18.2217 N   0  0  0  0  0  0  0  0  0  0  0  0
   -7.6492   -8.8611   20.7204 C   0  0  0  0  0  0  0  0  0  0  0  0
   -4.1215  -10.0997   17.8408 C   0  0  0  0  0  2  0  0  0  0  0  0
   -5.4031  -12.5008   15.7913 C   0  0  0  0  0  2  0  0  0  0  0  0
   -6.4540   -8.6112   19.8867 C   0  0  0  0  0  0  0  0  0  0  0  0
   -5.1900   -8.9956   17.7824 C   0  0  0  0  0  3  0  0  0  0  0  0
   -8.6722   -9.7207   20.2199 N   0  0  0  0  0  2  0  0  0  0  0  0
  2 16  1  0
  4 19  1  0
  5 14  1  0
  5 18  2  0
  6  2  1  0
  7 17  1  0
  7  9  1  0
  9 13  1  0
 10 11  1  0
 10  1  1  0
 12  8  1  0
 12 20  1  0
 13  4  1  0
 14 12  2  0
 15 20  1  0
 15  3  2  0
 16 19  1  0
 17  6  1  0
 18 10  1  0
 18 15  1  0
 19  5  1  0
M  RAD  8   2   3   4   3   6   3   7   3   8   3   9   3  10   2  11   2
M  RAD  5  13   3  16   3  17   3  19   2  20   2
M  END
$$$$
/tmp/tmpy0eqeb6t
     RDKit          3D

 20 22  0  0  0  0  0  0  0  0999 V2000
   -7.5368  -12.1398   18.8718 C   0  0  0  0  0  3  0  0  0  0  0  0
   -5.5666   -9.7409   16.8235 C   0  0  0  0  0  0  0  0  0  0  0  0
   -6.4759   -9.5800   19.0970 C   0  0  0  0  0  0  0  0  0  0  0  0
   -5.9794   -8.5492   16.1975 C   0  0  0  0  0  0  0  0  0  0  0  0
   -4.0832   -8.6739   14.6914 C   0  0  0  0  0  3  0  0  0  0  0  0
   -7.0055   -6.7445   17.4742 C   0  0  0  0  0  2  0  0  0  0  0  0
   -7.7057  -11.4317   20.0537 C   0  0  0  0  0  3  0  0  0  0  0  0
   -6.7108  -12.2203   16.7456 O   0  0  0  0  0  0  0  0  0  0  0  0
   -6.3123  -10.2965   17.9294 N   0  0  0  0  0  0  0  0  0  0  0  0
   -5.9178   -8.1865   19.2416 C   0  0  0  0  0  2  0  0  0  0  0  0
   -4.4075  -10.3883   16.3673 C   0  0  0  0  0  3  0  0  0  0  0  0
   -7.1859  -10.1471   20.1759 C   0  0  0  0  0  0  0  0  0  0  0  0
   -6.4682   -8.9425   23.5661 C   0  0  0  0  0  1  0  0  0  0  0  0
   -7.1218   -7.8844   16.6354 O   0  0  0  0  0  0  0  0  0  0  0  0
   -3.6702   -9.8579   15.3059 C   0  0  0  0  0  3  0  0  0  0  0  0
   -7.3666   -9.4255   21.4722 C   0  0  0  0  0  2  0  0  0  0  0  0
   -6.2404   -9.6975   22.3481 N   0  0  0  0  0  2  0  0  0  0  0  0
   -6.9962   -7.1515   18.9431 C   0  0  0  0  0  2  0  0  0  0  0  0
   -6.8388  -11.5614   17.8135 C   0  0  0  0  0  0  0  0  0  0  0  0
   -5.2344   -8.0205   15.1368 C   0  0  0  0  0  3  0  0  0  0  0  0
  1  7  2  0
  2  9  1  0
  3 12  2  0
  3 10  1  0
  4  2  2  0
  4 14  1  0
  5 15  1  0
  5 20  2  0
  6 18  1  0
  7 12  1  0
  8 19  2  0
  9  3  1  0
 11  2  1  0
 12 16  1  0
 13 17  1  0
 14  6  1  0
 15 11  2  0
 16 17  1  0
 18 10  1  0
 19  9  1  0
 19  1  1  0
 20  4  1  0
M  RAD  8   1   2   5   2   6   3   7   2  10   3  11   2  13   2  15   2
M  RAD  4  16   3  17   2  18   3  20   2
M  END
$$$$
/tmp/tmpfe2jyfg2
     RDKit          3D

 20 21  0  0  1  0  0  0  0  0999 V2000
   -3.3250   -9.2022   17.0909 C   0  0  0  0  0  2  0  0  0  0  0  0
   -7.8993  -10.0766   20.6685 N   0  0  0  0  0  2  0  0  0  0  0  0
   -7.4111  -11.3063   20.1078 C   0  0  0  0  0  3  0  0  0  0  0  0
   -6.8654   -9.5651   17.0448 C   0  0  0  0  0  0  0  0  0  0  0  0
   -4.1324  -12.1099   17.7883 C   0  0  0  0  0  2  0  0  0  0  0  0
   -2.9729  -10.4543   16.3156 C   0  0  0  0  0  3  0  0  0  0  0  0
   -5.2072  -13.0871   17.8702 N   0  0  0  0  0  2  0  0  0  0  0  0
   -7.2565  -13.8426   18.7229 N   0  0  0  0  0  2  0  0  0  0  0  0
   -8.4598   -7.7368   20.9679 C   0  0  0  0  0  2  0  0  0  0  0  0
   -6.8390   -8.5714   16.0554 N   0  0  0  0  0  2  0  0  0  0  0  0
   -5.5776   -8.0213   15.5847 C   0  0  0  0  0  2  0  0  0  0  0  0
   -4.1175  -11.4634   16.4149 C   0  0  0  0  0  2  0  0  0  0  0  0
   -4.7245   -9.1268   14.9762 C   0  0  0  0  0  2  0  0  0  0  0  0
   -6.9089  -11.4811   18.8743 C   0  0  0  0  0  0  0  0  0  0  0  0
   -7.8272   -8.7621   20.0517 C   0  0  0  0  0  2  0  0  0  0  0  0
   -6.4823  -12.8375   18.4747 C   0  0  0  0  0  0  0  0  0  0  0  0
   -8.3883   -6.4155   20.3433 C   0  0  0  0  0  0  0  0  0  0  0  0
   -6.8800  -10.4298   17.8862 C   0  0  0  0  0  0  0  0  0  0  0  0
   -3.3121   -9.1508   15.5711 C   0  0  0  0  0  3  0  0  0  0  0  0
   -8.3319   -5.3704   19.8496 N   0  0  0  0  0  0  0  0  0  0  0  0
  3  2  1  0
  4 18  3  0
  5  7  1  0
  6 19  1  0
  6  1  1  0
  6 12  1  0
  7 16  1  0
  8 16  2  0
  9 15  1  0
 10  4  1  0
 11 10  1  0
 12  5  1  0
 13 11  1  0
 14  3  2  0
 15  2  1  0
 16 14  1  0
 17  9  1  0
 18 14  1  0
 19  1  1  0
 19 13  1  0
 20 17  3  0
M  RAD  8   1   3   2   2   3   2   5   3   6   2   7   2   8   2   9   3
M  RAD  6  10   2  11   3  12   3  13   3  15   3  19   2
M  END
$$$$

     RDKit          3D

 15 16  0  0  0  0  0  0  0  0999 V2000
   -7.0439   -7.9868   19.3751 C   0  0  0  0  0  0  0  0  0  0  0  0
   -8.6790   -9.6136   19.9873 C   0  0  0  0  0  2  0  0  0  0  0  0
   -8.2729   -8.1515   20.0331 C   0  0  0  0  0  3  0  0  0  0  0  0
   -5.9057   -7.8368   18.6419 C   0  0  0  0  0  0  0  0  0  0  0  0
   -4.7695   -7.6874   19.5098 C   0  0  0  0  0  3  0  0  0  0  0  0
   -4.5762   -7.6706   16.5235 N   0  0  0  0  0  2  0  0  0  0  0  0
   -9.9962   -9.8237   20.7137 C   0  0  0  0  0  2  0  0  0  0  0  0
   -6.0901   -7.8703   21.7055 C   0  0  0  0  0  3  0  0  0  0  0  0
   -2.9811   -7.4685   14.7109 C   0  0  0  0  0  1  0  0  0  0  0  0
   -9.7981   -9.7125   22.1486 N   0  0  0  0  0  1  0  0  0  0  0  0
   -4.4377   -7.6594   15.0764 C   0  0  0  0  0  2  0  0  0  0  0  0
   -5.8394   -7.8347   17.1737 C   0  0  0  0  0  0  0  0  0  0  0  0
   -4.8622   -7.7035   20.9706 C   0  0  0  0  0  3  0  0  0  0  0  0
   -7.1275   -8.0021   20.8309 C   0  0  0  0  0  0  0  0  0  0  0  0
   -6.9194   -7.9815   16.4750 N   0  0  0  0  0  2  0  0  0  0  0  0
  1  3  1  0
  1 14  2  0
  2  7  1  0
  3  2  1  0
  3 14  1  0
  4  1  1  0
  4  5  2  0
  5 13  1  0
  6 12  1  0
  7 10  1  0
  9 11  1  0
 11  6  1  0
 12  4  1  0
 13  8  2  0
 14  8  1  0
 15 12  2  0
M  RAD  8   2   3   3   2   5   2   6   2   7   3   8   2   9   2  10   3
M  RAD  3  11   3  13   2  15   2
M  END
$$$$

     RDKit          3D

 17 17  0  0  0  0  0  0  0  0999 V2000
   -5.3645   -8.3194   17.4071 C   0  0  0  0  0  2  0  0  0  0  0  0
   -2.5991   -8.1640   16.0955 O   0  0  0  0  0  1  0  0  0  0  0  0
   -9.0103   -7.1190   19.3116 C   0  0  0  0  0  3  0  0  0  0  0  0
   -3.9856   -8.6011   15.2245 P   0  0  2  0  0  0  0  0  0  0  0  0
   -6.6579  -12.7853   16.4281 C   0  0  0  0  0  1  0  0  0  0  0  0
   -8.9311   -8.3610   18.6739 C   0  0  0  0  0  3  0  0  0  0  0  0
   -6.6251   -7.9096   18.0818 C   0  0  0  0  0  0  0  0  0  0  0  0
   -3.6732  -10.8085   16.3135 C   0  0  0  0  0  2  0  0  0  0  0  0
   -3.8853   -8.0188   13.8336 O   0  0  0  0  0  0  0  0  0  0  0  0
   -7.7399   -8.7551   18.0569 C   0  0  0  0  0  3  0  0  0  0  0  0
   -5.4140   -7.9452   16.0039 N   0  0  0  0  0  2  0  0  0  0  0  0
   -4.4523  -12.0671   16.6529 C   0  0  0  0  0  2  0  0  0  0  0  0
   -5.9525  -11.8179   18.4235 C   0  0  0  0  0  1  0  0  0  0  0  0
   -6.7077   -6.6640   18.7135 C   0  0  0  0  0  3  0  0  0  0  0  0
   -5.8280  -11.7303   16.9793 N   0  0  0  0  0  0  0  0  0  0  0  0
   -7.8992   -6.2701   19.3305 C   0  0  0  0  0  3  0  0  0  0  0  0
   -4.1173  -10.2898   15.0948 O   0  0  0  0  0  0  0  0  0  0  0  0
  1  7  1  0
  2  4  1  0
  3  6  2  0
  4  9  2  0
  4 11  1  0
  7 10  2  0
 10  6  1  0
 11  1  1  0
 12  8  1  0
 14  7  1  0
 14 16  2  0
 15  5  1  0
 15 13  1  0
 15 12  1  0
 16  3  1  0
 17  4  1  0
 17  8  1  0
M  RAD  8   1   3   2   2   3   2   5   2   6   2   8   3  10   2  11   2
M  RAD  4  12   3  13   2  14   2  16   2
M  END
$$$$
/tmp/tmpw87fxw0t
     RDKit          3D

 20 22  0  0  1  0  0  0  0  0999 V2000
   -5.3684   -8.3173   15.0401 C   0  0  0  0  0  2  0  0  0  0  0  0
   -7.9799  -10.7818   19.5141 N   0  0  0  0  0  0  0  0  0  0  0  0
   -7.2032   -9.7233   20.1452 C   0  0  0  0  0  3  0  0  0  0  0  0
   -5.9670   -9.4457   19.3486 C   0  0  0  0  0  0  0  0  0  0  0  0
   -3.0100   -8.5419   14.3222 O   0  0  0  0  0  0  0  0  0  0  0  0
   -9.7146   -9.5779   21.6717 N   0  0  0  0  0  0  0  0  0  0  0  0
   -5.4153  -10.1640   17.0421 C   0  0  0  0  0  3  0  0  0  0  0  0
   -5.3575   -9.7339   15.5841 C   0  0  0  0  0  3  0  0  0  0  0  0
   -4.3332   -8.2694   13.8865 C   0  0  0  0  0  3  0  0  0  0  0  0
   -4.3925   -7.0461   13.1973 O   0  0  0  0  0  0  0  0  0  0  0  0
   -3.9508   -6.1226   14.0313 O   0  0  0  0  0  1  0  0  0  0  0  0
   -3.1364  -10.5611   15.7193 C   0  0  0  0  0  2  0  0  0  0  0  0
   -6.0551   -9.0829   17.8981 C   0  0  0  0  0  2  0  0  0  0  0  0
   -9.0576  -11.2948   20.0236 C   0  0  0  0  0  3  0  0  0  0  0  0
   -9.1267   -8.4365   21.0268 C   0  0  0  0  0  3  0  0  0  0  0  0
   -9.7013  -10.8149   21.2632 C   0  0  0  0  0  3  0  0  0  0  0  0
   -4.1152   -9.6677   16.4641 C   0  0  0  0  0  3  0  0  0  0  0  0
   -2.8431   -9.9472   14.3252 C   0  0  0  0  0  2  0  0  0  0  0  0
   -4.8781   -9.4873   19.8985 O   0  0  0  0  0  0  0  0  0  0  0  0
   -8.0121   -8.4796   20.3001 C   0  0  0  0  0  3  0  0  0  0  0  0
  2 14  2  0
  2  3  1  0
  3  4  1  0
  3 20  1  0
  4 19  2  0
  5 18  1  0
  6 15  1  0
  7 13  1  0
  8  1  1  0
  8 17  1  0
  8  7  1  0
  9 10  1  0
  9  1  1  0
  9  5  1  0
 10 11  1  0
 13  4  1  0
 14 16  1  0
 16  6  2  0
 17 12  1  0
 17  7  1  0
 18 12  1  0
 20 15  2  0
M  RAD  8   1   3   3   2   7   2   8   2   9   2  11   2  12   3  13   3
M  RAD  6  14   2  15   2  16   2  17   2  18   3  20   2
M  END
$$$$
/tmp/tmpc_109ivw
     RDKit          3D

 20 23  0  0  1  0  0  0  0  0999 V2000
   -4.5013   -8.6245   15.5149 N   0  0  0  0  0  0  0  0  0  0  0  0
   -6.9986  -12.0835   19.6937 N   0  0  0  0  0  1  0  0  0  0  0  0
   -5.8165  -11.2234   15.2505 C   0  0  0  0  0  2  0  0  0  0  0  0
   -8.2223   -6.6520   20.1686 C   0  0  0  0  0  3  0  0  0  0  0  0
   -5.1494  -12.7578   17.0860 C   0  0  0  0  0  1  0  0  0  0  0  0
   -4.5369   -7.2914   15.9181 C   0  0  0  0  0  2  0  0  0  0  0  0
   -7.3110   -9.5016   20.7647 C   0  0  0  0  0  0  0  0  0  0  0  0
   -7.4222   -9.7741   22.1295 N   0  0  0  0  0  2  0  0  0  0  0  0
   -6.2934   -8.2729   17.5719 C   0  0  0  0  0  0  0  0  0  0  0  0
   -3.9450   -9.6678   14.7162 C   0  0  0  0  0  3  0  0  0  0  0  0
   -4.5146  -10.8671   14.6077 C   0  0  0  0  0  3  0  0  0  0  0  0
   -7.9026   -7.1995   18.9643 C   0  0  0  0  0  3  0  0  0  0  0  0
   -7.5839   -8.4858   21.6161 C   0  0  0  0  0  0  0  0  0  0  0  0
   -7.1213   -9.7061   19.3535 C   0  0  0  0  0  0  0  0  0  0  0  0
   -7.1205   -8.4232   18.5737 C   0  0  0  0  0  0  0  0  0  0  0  0
   -7.0233  -10.9457   18.8326 C   0  0  0  0  0  0  0  0  0  0  0  0
   -7.8124   -7.0402   21.5798 C   0  0  0  0  0  2  0  0  0  0  0  0
   -5.6894  -11.3768   16.7559 C   0  0  0  0  0  3  0  0  0  0  0  0
   -5.4290   -8.0937   16.6123 C   0  0  0  0  0  0  0  0  0  0  0  0
   -7.0726  -11.1909   17.3569 C   0  0  0  0  0  2  0  0  0  0  0  0
  1 19  1  0
  3 18  1  0
  4 17  1  0
  6  1  1  0
  6 19  1  0
  7 13  2  0
  7  8  1  0
  9 15  2  0
 10  1  1  0
 10 11  2  0
 11  3  1  0
 12  4  2  0
 13  8  1  0
 13 17  1  0
 14  7  1  0
 15 14  1  0
 15 12  1  0
 16 14  2  0
 16  2  1  0
 18  5  1  0
 18 20  1  0
 19  9  2  0
 20 16  1  0
M  RAD  8   2   3   3   3   4   2   5   2   6   3   8   2  10   2  11   2
M  RAD  4  12   2  17   3  18   2  20   3
M  END
$$$$
/tmp/tmpb240t5cm
     RDKit          3D

 20 22  0  0  1  0  0  0  0  0999 V2000
   -7.3731   -9.7603   21.2544 C   0  0  0  0  0  2  0  0  0  0  0  0
   -7.4093  -11.7609   19.8987 C   0  0  0  0  0  2  0  0  0  0  0  0
   -5.4431   -9.2041   15.8690 C   0  0  1  0  0  0  0  0  0  0  0  0
   -4.6078   -7.0986   14.7191 C   0  0  0  0  0  2  0  0  0  0  0  0
   -6.2210   -7.5274   21.4342 O   0  0  0  0  0  1  0  0  0  0  0  0
   -5.6674   -8.4096   17.1627 C   0  0  0  0  0  3  0  0  0  0  0  0
   -5.9850   -8.8536   19.5221 C   0  0  0  0  0  0  0  0  0  0  0  0
   -5.9651  -11.6607   19.3605 C   0  0  0  0  0  2  0  0  0  0  0  0
   -6.7629  -11.0414   17.0730 N   0  0  0  0  0  2  0  0  0  0  0  0
   -4.7384   -7.2892   17.2617 N   0  0  0  0  0  2  0  0  0  0  0  0
   -6.4712  -10.3639   15.7907 C   0  0  0  0  0  3  0  0  0  0  0  0
   -8.0543  -10.4714   20.1664 N   0  0  0  0  0  2  0  0  0  0  0  0
   -5.6398   -8.2354   14.7015 C   0  0  0  0  0  2  0  0  0  0  0  0
   -6.1226  -11.3893   14.7224 C   0  0  0  0  0  1  0  0  0  0  0  0
   -4.3778   -6.5392   16.0969 C   0  0  0  0  0  0  0  0  0  0  0  0
   -4.1380   -9.7176   15.8395 O   0  0  0  0  0  1  0  0  0  0  0  0
   -3.7814   -5.4393   16.2260 O   0  0  0  0  0  0  0  0  0  0  0  0
   -5.7459  -10.7894   18.1009 C   0  0  0  0  0  3  0  0  0  0  0  0
   -5.6056   -9.3034   18.3620 C   0  0  0  0  0  0  0  0  0  0  0  0
   -6.5042   -8.6693   20.6981 C   0  0  0  0  0  0  0  0  0  0  0  0
  2 12  1  0
  3 16  1  1
  3 11  1  0
  3  6  1  0
  4 15  1  0
  6 10  1  0
  6 19  1  0
  7 20  2  0
  8  2  1  0
  9 18  1  0
 11 14  1  0
 11  9  1  0
 12  1  1  0
 13  4  1  0
 13  3  1  0
 15 17  2  0
 15 10  1  0
 18 19  1  0
 18  8  1  0
 19  7  2  0
 20  5  1  0
 20  1  1  0
M  RAD  8   1   3   2   3   4   3   5   2   6   2   8   3   9   2  10   2
M  RAD  6  11   2  12   2  13   3  14   2  16   2  18   2
M  END
$$$$
/tmp/tmpdcdyfm6d
     RDKit          3D

 20 23  0  0  0  0  0  0  0  0999 V2000
   -4.8882   -6.8963   18.1932 C   0  0  0  0  0  0  0  0  0  0  0  0
   -5.9476   -8.4128   16.0889 C   0  0  0  0  0  2  0  0  0  0  0  0
   -6.2526  -11.9932   17.4544 C   0  0  0  0  0  3  0  0  0  0  0  0
   -5.8394   -7.7191   18.8936 N   0  0  0  0  0  0  0  0  0  0  0  0
   -5.3296  -10.0659   14.3941 C   0  0  0  0  0  2  0  0  0  0  0  0
   -6.2658   -7.1877   20.0844 C   0  0  0  0  0  3  0  0  0  0  0  0
   -6.2467   -8.9017   14.6802 C   0  0  0  0  0  2  0  0  0  0  0  0
   -6.0209   -9.4828   17.1696 C   0  0  0  0  0  0  0  0  0  0  0  0
   -5.0751   -5.5202   18.1168 O   0  0  0  0  0  1  0  0  0  0  0  0
   -7.6293  -11.3649   20.8569 C   0  0  0  0  0  3  0  0  0  0  0  0
   -7.1446   -9.2855   20.7228 C   0  0  0  0  0  0  0  0  0  0  0  0
   -7.6919  -10.2011   21.5405 N   0  0  0  0  0  0  0  0  0  0  0  0
   -7.0558  -11.1522   19.6131 C   0  0  0  0  0  0  0  0  0  0  0  0
   -5.9469  -10.8425   16.7310 C   0  0  0  0  0  0  0  0  0  0  0  0
   -6.9508   -7.9534   21.0266 C   0  0  0  0  0  3  0  0  0  0  0  0
   -5.6058  -11.1124   15.3631 N   0  0  0  0  0  2  0  0  0  0  0  0
   -6.7477   -9.8201   19.5236 C   0  0  0  0  0  0  0  0  0  0  0  0
   -6.7730  -12.1553   18.7221 C   0  0  0  0  0  3  0  0  0  0  0  0
   -6.1572   -9.0275   18.5219 C   0  0  0  0  0  0  0  0  0  0  0  0
   -3.8431   -7.4040   17.7044 O   0  0  0  0  0  0  0  0  0  0  0  0
  1  9  1  0
  1  4  1  0
  2  8  1  0
  3 18  2  0
  4  6  1  0
  5 16  1  0
  6 15  2  0
  7  5  1  0
  7  2  1  0
  8 19  1  0
 10 12  1  0
 11 15  1  0
 11 12  2  0
 13 17  1  0
 13 10  2  0
 14  8  2  0
 14  3  1  0
 16 14  1  0
 17 11  1  0
 18 13  1  0
 19  4  1  0
 19 17  2  0
 20  1  2  0
M  RAD  8   2   3   3   2   5   3   6   2   7   3   9   2  10   2  15   2
M  RAD  2  16   2  18   2
M  END
$$$$
/tmp/tmpjb0dawm1
     RDKit          3D

 20 22  0  0  1  0  0  0  0  0999 V2000
   -5.8630   -7.9674   21.1269 C   0  0  0  0  0  3  0  0  0  0  0  0
   -6.5897   -6.3760   19.5273 C   0  0  0  0  0  3  0  0  0  0  0  0
   -3.3473  -13.3597   14.9694 C   0  0  0  0  0  1  0  0  0  0  0  0
   -6.1581   -7.2687   16.0088 C   0  0  0  0  0  2  0  0  0  0  0  0
   -3.7941  -12.0421   14.3660 C   0  0  0  0  0  2  0  0  0  0  0  0
   -8.0073   -6.0968   16.9951 N   0  0  0  0  0  2  0  0  0  0  0  0
   -7.0680   -6.9681   17.1652 C   0  0  0  0  0  0  0  0  0  0  0  0
   -5.5716   -9.6405   16.7008 C   0  0  0  0  0  3  0  0  0  0  0  0
   -6.1349   -8.7404   15.5957 C   0  0  0  0  0  3  0  0  0  0  0  0
   -6.5524   -9.8015   17.8551 C   0  0  0  0  0  3  0  0  0  0  0  0
   -7.4868   -9.2026   15.0631 C   0  0  0  0  0  1  0  0  0  0  0  0
   -6.3639  -11.1888   18.3708 C   0  0  0  0  0  0  0  0  0  0  0  0
   -7.1507  -11.7001   19.1508 O   0  0  0  0  0  0  0  0  0  0  0  0
   -5.0468  -12.1247   17.6262 S   0  0  0  0  0  0  0  0  0  0  0  0
   -6.3702   -8.6991   18.8736 C   0  0  0  0  0  0  0  0  0  0  0  0
   -5.9512   -8.9882   20.1816 C   0  0  0  0  0  3  0  0  0  0  0  0
   -6.1883   -6.6940   20.7858 N   0  0  0  0  0  0  0  0  0  0  0  0
   -5.1934  -11.0266   16.1817 C   0  0  0  0  0  3  0  0  0  0  0  0
   -6.6792   -7.3624   18.5360 C   0  0  0  0  0  0  0  0  0  0  0  0
   -3.8711  -10.9604   15.4311 C   0  0  0  0  0  2  0  0  0  0  0  0
  2 17  2  0
  4  7  1  0
  5  3  1  0
  5 20  1  0
  6  7  2  0
  7 19  1  0
  8 10  1  0
  9  4  1  0
  9  8  1  0
 10 12  1  0
 10 15  1  0
 11  9  1  0
 12 13  2  0
 14 12  1  0
 15 16  1  0
 16  1  2  0
 17  1  1  0
 18  8  1  0
 18 14  1  0
 19 15  2  0
 19  2  1  0
 20 18  1  0
M  RAD  8   1   2   2   2   3   2   4   3   5   3   6   2   8   2   9   2
M  RAD  5  10   2  11   2  16   2  18   2  20   3
M  END
$$$$
/tmp/tmpmd5um5s1
     RDKit          3D

 20 23  0  0  1  0  0  0  0  0999 V2000
   -5.5142   -8.0668   17.7415 C   0  0  0  0  0  0  0  0  0  0  0  0
   -6.9474  -12.6597   19.1640 C   0  0  0  0  0  3  0  0  0  0  0  0
   -6.0957   -8.1135   18.9730 N   0  0  0  0  0  0  0  0  0  0  0  0
   -6.5337  -13.3547   18.0265 C   0  0  0  0  0  0  0  0  0  0  0  0
   -5.9303  -12.6693   16.9771 C   0  0  0  0  0  3  0  0  0  0  0  0
   -4.3938   -7.2664   14.2758 C   0  0  0  0  0  2  0  0  0  0  0  0
   -3.9813   -9.0062   14.7084 S   0  0  0  0  0  0  0  0  0  0  0  0
   -7.9787   -9.9545   22.3453 O   0  0  0  0  0  0  0  0  0  0  0  0
   -5.7451  -11.2926   17.0729 C   0  0  0  0  0  3  0  0  0  0  0  0
   -7.4215   -9.7051   21.2454 C   0  0  0  0  0  0  0  0  0  0  0  0
   -7.1030   -8.3874   21.0489 N   0  0  0  0  0  0  0  0  0  0  0  0
   -4.8475   -7.2896   16.6625 C   0  0  0  0  0  2  0  0  0  0  0  0
   -6.7285  -14.7607   17.9406 N   0  0  0  0  0  1  0  0  0  0  0  0
   -5.9536   -9.2666   18.2449 C   0  0  0  0  0  0  0  0  0  0  0  0
   -5.2619   -7.8277   15.3074 C   0  0  0  0  0  3  0  0  0  0  0  0
   -6.7765  -11.2720   19.2951 C   0  0  0  0  0  0  0  0  0  0  0  0
   -6.3957   -6.1446   20.3619 C   0  0  0  0  0  1  0  0  0  0  0  0
   -6.5321   -7.6036   20.1103 C   0  0  0  0  0  0  0  0  0  0  0  0
   -6.1603  -10.5958   18.2142 C   0  0  0  0  0  0  0  0  0  0  0  0
   -7.2363  -10.7821   20.4574 O   0  0  0  0  0  0  0  0  0  0  0  0
  1 14  2  0
  1  3  1  0
  2 16  2  0
  3 18  1  0
  4 13  1  0
  4  2  1  0
  5  9  1  0
  5  4  2  0
  6  7  1  0
  6 15  1  0
  7 15  1  0
  9 19  2  0
 10  8  2  0
 11 10  1  0
 12  1  1  0
 14  3  1  0
 15 12  1  0
 16 20  1  0
 17 18  1  0
 18 11  2  0
 19 14  1  0
 19 16  1  0
 20 10  1  0
M  RAD  8   2   2   5   2   6   3   9   2  12   3  13   3  15   2  17   2
M  END
$$$$
/tmp/tmp9gdpyi8a
     RDKit          3D

 20 22  0  0  1  0  0  0  0  0999 V2000
   -4.0513  -11.1140   16.5563 C   0  0  0  0  0  1  0  0  0  0  0  0
   -5.8746   -9.3627   12.9234 C   0  0  0  0  0  2  0  0  0  0  0  0
   -6.2983   -6.6756   22.0470 O   0  0  0  0  0  0  0  0  0  0  0  0
   -6.1569   -8.7397   19.1366 C   0  0  0  0  0  2  0  0  0  0  0  0
   -5.5197  -10.3769   13.9948 C   0  0  0  0  0  2  0  0  0  0  0  0
   -6.3568  -12.0990   16.3580 C   0  0  0  0  0  2  0  0  0  0  0  0
   -7.2085  -12.9754   19.9830 C   0  0  0  0  0  2  0  0  0  0  0  0
   -7.2061   -9.3198   20.0229 C   0  0  0  0  0  0  0  0  0  0  0  0
   -6.3718  -12.8872   17.6594 C   0  0  0  0  0  2  0  0  0  0  0  0
   -5.5417  -10.8172   16.4941 C   0  0  0  0  0  3  0  0  0  0  0  0
   -7.1514  -10.5603   20.4922 C   0  0  0  0  0  0  0  0  0  0  0  0
   -5.8641   -9.8298   15.3758 C   0  0  0  0  0  2  0  0  0  0  0  0
   -6.4718   -7.4884   21.1535 C   0  0  0  0  0  0  0  0  0  0  0  0
   -7.6334   -8.4136   21.1072 C   0  0  0  0  0  3  0  0  0  0  0  0
   -6.4301  -11.6849   19.8179 C   0  0  0  0  0  3  0  0  0  0  0  0
   -5.5610   -7.6058   19.9722 C   0  0  0  0  0  2  0  0  0  0  0  0
   -7.7017   -9.3728   22.2534 C   0  0  0  0  0  3  0  0  0  0  0  0
   -7.4545  -10.5857   21.8801 N   0  0  0  0  0  0  0  0  0  0  0  0
   -7.2770  -12.2167   18.6759 C   0  0  0  0  0  3  0  0  0  0  0  0
   -7.3173   -9.2816   12.7732 N   0  0  0  0  0  1  0  0  0  0  0  0
  2  5  1  0
  2 20  1  0
  4  8  1  0
  5 12  1  0
  6  9  1  0
  7 15  1  0
  8 11  2  0
  8 14  1  0
 10  1  1  0
 10  6  1  0
 11 18  1  0
 12 10  1  0
 13  3  2  0
 13 14  1  0
 14 17  1  0
 15 11  1  0
 16  4  1  0
 16 13  1  0
 17 18  2  0
 19  9  1  0
 19  7  1  0
 19 15  1  0
M  RAD  8   1   2   2   3   4   3   5   3   6   3   7   3   9   3  10   2
M  RAD  7  12   3  14   2  15   2  16   3  17   2  19   2  20   3
M  END
$$$$
/tmp/tmpw9szjumb
     RDKit          3D

 20 22  0  0  1  0  0  0  0  0999 V2000
   -5.0201  -11.0139   17.5012 C   0  0  0  0  0  1  0  0  0  0  0  0
   -6.4699  -10.7675   17.0867 C   0  0  0  0  0  3  0  0  0  0  0  0
   -6.6433  -10.7590   21.5759 C   0  0  0  0  0  3  0  0  0  0  0  0
   -6.5895   -9.8383   22.6825 C   0  0  0  0  0  3  0  0  0  0  0  0
   -7.5256   -8.3600   15.0725 O   0  0  0  0  0  0  0  0  0  0  0  0
   -5.5760  -10.8684   14.6516 C   0  0  0  0  0  3  0  0  0  0  0  0
   -7.1230   -7.1994   18.1571 C   0  0  0  0  0  0  0  0  0  0  0  0
   -6.0499  -13.1370   14.0708 O   0  0  0  0  0  1  0  0  0  0  0  0
   -4.5203   -9.9869   14.9042 O   0  0  0  0  0  1  0  0  0  0  0  0
   -6.8262   -9.3751   17.2869 N   0  0  0  0  0  0  0  0  0  0  0  0
   -6.7943   -8.9516   19.7872 C   0  0  0  0  0  0  0  0  0  0  0  0
   -6.7405   -8.1529   20.8962 C   0  0  0  0  0  0  0  0  0  0  0  0
   -6.7375  -10.7100   15.6592 C   0  0  0  0  0  3  0  0  0  0  0  0
   -6.9107   -8.4687   18.3940 C   0  0  0  0  0  0  0  0  0  0  0  0
   -7.1178   -9.2736   15.8366 C   0  0  0  0  0  0  0  0  0  0  0  0
   -6.7441  -10.3349   20.1797 C   0  0  0  0  0  3  0  0  0  0  0  0
   -6.6478   -8.5590   22.2081 C   0  0  0  0  0  0  0  0  0  0  0  0
   -6.6966   -7.1853   21.9148 N   0  0  0  0  0  2  0  0  0  0  0  0
   -5.0652  -12.2993   14.5950 C   0  0  0  0  0  2  0  0  0  0  0  0
   -7.3238   -5.9992   17.9328 O   0  0  0  0  0  0  0  0  0  0  0  0
  2  1  1  0
  2 10  1  0
  3  4  2  0
  4 17  1  0
  5 15  2  0
  6  9  1  0
  6 19  1  0
  7 20  2  0
 10 14  1  0
 11 12  1  0
 12 17  2  0
 12 18  1  0
 13  6  1  0
 13 15  1  0
 13  2  1  0
 14  7  2  0
 14 11  1  0
 15 10  1  0
 16 11  2  0
 16  3  1  0
 17 18  1  0
 19  8  1  0
M  RAD  8   1   2   2   2   3   2   4   2   6   2   8   2   9   2  13   2
M  RAD  3  16   2  18   2  19   3
M  END
$$$$

     RDKit          3D

 12 11  0  0  0  0  0  0  0  0999 V2000
   -7.4772   -9.1186   16.0968 C   0  0  0  0  0  0  0  0  0  0  0  0
   -7.0512   -8.6032   17.3601 N   0  0  0  0  0  2  0  0  0  0  0  0
   -2.3809   -7.9737   15.9372 C   0  0  0  0  0  2  0  0  0  0  0  0
   -7.5829   -7.3663   17.9068 C   0  0  0  0  0  1  0  0  0  0  0  0
   -1.1294   -7.6539   15.4135 O   0  0  0  0  0  1  0  0  0  0  0  0
   -2.7119   -9.2813   15.5850 O   0  0  0  0  0  0  0  0  0  0  0  0
   -3.9706   -9.4867   16.1473 C   0  0  0  0  0  2  0  0  0  0  0  0
   -8.3443   -8.5010   15.4207 O   0  0  0  0  0  0  0  0  0  0  0  0
   -6.9063  -10.3714   15.5816 C   0  0  0  0  0  0  0  0  0  0  0  0
   -5.8588  -11.1075   16.3536 C   0  0  0  0  0  2  0  0  0  0  0  0
   -7.2891  -10.8283   14.4716 O   0  0  0  0  0  0  0  0  0  0  0  0
   -4.4775  -10.8651   15.7658 C   0  0  0  0  0  2  0  0  0  0  0  0
  1  2  1  0
  2  4  1  0
  3  6  1  0
  5  3  1  0
  6  7  1  0
  8  1  2  0
  9 10  1  0
  9  1  1  0
 10 12  1  0
 11  9  2  0
 12  7  1  0
M  RAD  7   2   2   3   3   4   2   5   2   7   3  10   3  12   3
M  END
$$$$

     RDKit          3D

 12 13  0  0  0  0  0  0  0  0999 V2000
   -6.8329   -6.7674   20.1941 C   0  0  0  0  0  3  0  0  0  0  0  0
   -6.2673   -7.8900   19.6607 N   0  0  0  0  0  0  0  0  0  0  0  0
   -7.8219   -6.8709   21.1923 C   0  0  0  0  0  3  0  0  0  0  0  0
   -6.6676   -9.1129   20.0945 C   0  0  0  0  0  0  0  0  0  0  0  0
   -7.5889  -10.5873   17.7494 O   0  0  0  0  0  0  0  0  0  0  0  0
   -7.8832  -10.6072   21.3957 N   0  0  0  0  0  2  0  0  0  0  0  0
   -7.0088  -11.3245   20.5216 C   0  0  0  0  0  0  0  0  0  0  0  0
   -6.1606  -10.4398   19.6469 C   0  0  0  0  0  3  0  0  0  0  0  0
   -6.8171  -12.5963   20.6382 N   0  0  0  0  0  2  0  0  0  0  0  0
   -6.4529  -10.6723   18.1917 C   0  0  0  0  0  3  0  0  0  0  0  0
   -7.6262   -9.2525   21.0691 C   0  0  0  0  0  0  0  0  0  0  0  0
   -8.2276   -8.1367   21.6429 C   0  0  0  0  0  3  0  0  0  0  0  0
  1  3  2  0
  2  4  2  0
  2  1  1  0
  3 12  1  0
  4 11  1  0
  5 10  2  0
  7  6  1  0
  8 10  1  0
  8  4  1  0
  8  7  1  0
  9  7  2  0
 11  6  1  0
 11 12  2  0
M  RAD  7   1   2   3   2   6   2   8   2   9   2  10   2  12   2
M  END
$$$$

     RDKit          3D

 17 16  0  0  0  0  0  0  0  0999 V2000
   -5.9591  -10.1539   17.2727 C   0  0  0  0  0  3  0  0  0  0  0  0
   -4.3179  -10.1398   14.6247 O   0  0  0  0  0  0  0  0  0  0  0  0
   -3.7606   -7.5578   21.0598 Cl  0  0  0  0  0  0  0  0  0  0  0  0
   -5.5257  -11.1647   12.8834 C   0  0  0  0  0  2  0  0  0  0  0  0
   -6.5154   -9.3455   21.8449 C   0  0  0  0  0  2  0  0  0  0  0  0
   -6.7704  -10.8559   16.2406 C   0  0  0  0  0  2  0  0  0  0  0  0
   -5.7853   -8.6692   19.0847 O   0  0  0  0  0  0  0  0  0  0  0  0
   -7.2855   -8.5113   20.9278 N   0  0  0  0  0  0  0  0  0  0  0  0
   -7.9969   -7.5764   21.6947 N   0  0  0  0  0  1  0  0  0  0  0  0
   -7.3466  -10.4305   22.3355 N   0  0  0  0  0  1  0  0  0  0  0  0
   -5.8847  -11.7391   15.3750 C   0  0  0  0  0  2  0  0  0  0  0  0
   -6.3986   -7.7792   20.0080 C   0  0  0  0  0  3  0  0  0  0  0  0
   -5.3621   -6.9257   20.6998 C   0  0  0  0  0  0  0  0  0  0  0  0
   -6.5434   -9.3242   18.1216 C   0  0  0  0  0  3  0  0  0  0  0  0
   -5.1873  -10.9411   14.3190 C   0  0  0  0  0  0  0  0  0  0  0  0
   -5.6545   -5.7272   21.0447 N   0  0  0  0  0  2  0  0  0  0  0  0
   -6.0991   -9.9565   12.3170 N   0  0  0  0  0  1  0  0  0  0  0  0
  1 14  2  0
  4 17  1  0
  4 15  1  0
  5  8  1  0
  5 10  1  0
  6  1  1  0
  8  9  1  0
 11  6  1  0
 12  7  1  0
 12 13  1  0
 12  8  1  0
 13  3  1  0
 14  7  1  0
 15  2  2  0
 15 11  1  0
 16 13  2  0
M  RAD  8   1   2   4   3   5   3   6   3   9   3  10   3  11   3  12   2
M  RAD  3  14   2  16   2  17   3
M  END
$$$$

     RDKit          3D

  6  7  0  0  0  0  0  0  0  0999 V2000
   -6.3892  -10.1120   15.0304 C   0  0  0  0  0  2  0  0  0  0  0  0
   -5.2423   -9.2271   15.4804 C   0  0  0  0  0  3  0  0  0  0  0  0
   -3.5561  -10.6645   15.8356 C   0  0  0  0  0  2  0  0  0  0  0  0
   -4.1665  -11.1177   14.5358 C   0  0  0  0  0  2  0  0  0  0  0  0
   -4.5092   -9.8747   16.4931 O   0  0  0  0  0  0  0  0  0  0  0  0
   -5.1277  -10.0180   14.1918 C   0  0  0  0  0  3  0  0  0  0  0  0
  2  1  1  0
  2  5  1  0
  3  5  1  0
  4  3  1  0
  6  4  1  0
  6  1  1  0
  6  2  1  0
M  RAD  5   1   3   2   2   3   3   4   3   6   2
M  END
$$$$

     RDKit          3D

 19 22  0  0  0  0  0  0  0  0999 V2000
   -8.4233  -11.9480   17.7200 C   0  0  0  0  0  3  0  0  0  0  0  0
   -4.2951   -7.3029   15.5800 C   0  0  0  0  0  2  0  0  0  0  0  0
   -5.2219   -8.3463   14.9722 C   0  0  0  0  0  2  0  0  0  0  0  0
   -8.3784  -11.8301   19.2099 C   0  0  0  0  0  3  0  0  0  0  0  0
   -7.4153  -11.1260   19.8245 C   0  0  0  0  0  0  0  0  0  0  0  0
   -6.2020   -8.5310   21.8939 C   0  0  0  0  0  2  0  0  0  0  0  0
   -7.6400  -11.2006   16.9188 C   0  0  0  0  0  3  0  0  0  0  0  0
   -6.6595  -10.3064   17.5484 C   0  0  0  0  0  0  0  0  0  0  0  0
   -7.3198   -7.2511   15.8585 C   0  0  0  0  0  1  0  0  0  0  0  0
   -6.8638   -9.6996   21.4525 C   0  0  0  0  0  0  0  0  0  0  0  0
   -5.7576   -9.1805   19.2852 C   0  0  0  0  0  0  0  0  0  0  0  0
   -5.9703   -8.8697   20.5337 C   0  0  0  0  0  0  0  0  0  0  0  0
   -6.2467   -9.0963   17.1383 C   0  0  0  0  0  0  0  0  0  0  0  0
   -6.2373  -10.5651   18.9387 C   0  0  0  0  0  3  0  0  0  0  0  0
   -3.0416   -7.1910   14.7396 C   0  0  0  0  0  2  0  0  0  0  0  0
   -7.5408  -10.7720   21.2485 N   0  0  0  0  0  0  0  0  0  0  0  0
   -5.6330   -8.3719   18.1725 O   0  0  0  0  0  0  0  0  0  0  0  0
   -2.1300   -6.1395   15.3363 C   0  0  0  0  0  1  0  0  0  0  0  0
   -6.5079   -8.5329   15.7764 C   0  0  0  0  0  3  0  0  0  0  0  0
  1  4  1  0
  3  2  1  0
  3 19  1  0
  4  5  2  0
  5 16  1  0
  7  8  1  0
  7  1  2  0
 10 16  2  0
 10  6  1  0
 11 14  1  0
 11 12  2  3
 12 10  1  0
 12  6  1  0
 13 17  1  0
 13  8  2  0
 14  8  1  0
 14  5  1  0
 15  2  1  0
 15 18  1  0
 17 11  1  0
 19  9  1  0
 19 13  1  0
M  RAD  8   1   2   2   3   3   3   4   2   6   3   7   2   9   2  14   2
M  RAD  3  15   3  18   2  19   2
M  END
$$$$
/tmp/tmpoo780u76
     RDKit          3D

 20 20  0  0  1  0  0  0  0  0999 V2000
   -5.5893  -10.8946   20.0680 C   0  0  0  0  0  3  0  0  0  0  0  0
   -7.0115  -14.3147   17.7597 C   0  0  0  0  0  0  0  0  0  0  0  0
   -9.2165   -6.1901   18.6850 N   0  0  0  0  0  1  0  0  0  0  0  0
   -6.6155   -8.1585   21.2232 C   0  0  0  0  0  1  0  0  0  0  0  0
   -7.1465  -10.1439   16.6584 C   0  0  0  0  0  1  0  0  0  0  0  0
   -4.9380   -9.9104   20.7008 C   0  0  0  0  0  3  0  0  0  0  0  0
   -7.3394  -12.0206   18.8094 C   0  0  0  0  0  0  0  0  0  0  0  0
   -6.1257  -15.2021   17.0889 N   0  0  0  0  0  1  0  0  0  0  0  0
   -5.1577   -7.9370   19.1523 C   0  0  0  0  0  2  0  0  0  0  0  0
   -7.9105   -6.6158   18.3170 C   0  0  0  0  0  0  0  0  0  0  0  0
   -6.5538  -13.0103   18.1306 N   0  0  0  0  0  2  0  0  0  0  0  0
   -7.0039   -5.6779   17.7407 N   0  0  0  0  0  1  0  0  0  0  0  0
   -6.2469   -8.3838   18.1603 C   0  0  0  0  0  3  0  0  0  0  0  0
   -8.5316  -12.2571   19.1402 O   0  0  0  0  0  0  0  0  0  0  0  0
   -7.5662   -7.8530   18.5020 N   0  0  0  0  0  0  0  0  0  0  0  0
   -4.3019   -7.7579   21.3498 O   0  0  0  0  0  1  0  0  0  0  0  0
   -8.1864  -14.6882   18.0176 O   0  0  0  0  0  0  0  0  0  0  0  0
   -6.2865   -9.8915   17.8936 C   0  0  0  0  0  3  0  0  0  0  0  0
   -5.2566   -8.4445   20.6019 C   0  0  1  0  0  0  0  0  0  0  0  0
   -6.7447  -10.6829   19.1357 C   0  0  0  0  0  3  0  0  0  0  0  0
  1  6  2  0
  2 11  1  0
  2 17  2  0
  3 10  1  0
  7 14  2  0
  8  2  1  0
  9 19  1  0
 10 15  2  0
 10 12  1  0
 11  7  1  0
 13 15  1  0
 13 18  1  0
 13  9  1  0
 18  5  1  0
 18 20  1  0
 19  4  1  1
 19 16  1  0
 19  6  1  0
 20  7  1  0
 20  1  1  0
M  RAD  8   1   2   3   3   4   2   5   2   6   2   8   3   9   3  11   2
M  RAD  5  12   3  13   2  16   2  18   2  20   2
M  END
$$$$
/tmp/tmplpqj35lg
     RDKit          3D

 20 20  0  0  1  0  0  0  0  0999 V2000
   -6.8503   -9.8252   16.3150 C   0  0  0  0  0  3  0  0  0  0  0  0
   -5.5897  -10.2545   16.9977 C   0  0  0  0  0  0  0  0  0  0  0  0
   -7.7354   -7.8755   14.9855 C   0  0  0  0  0  3  0  0  0  0  0  0
   -5.3595   -8.5541   21.1056 C   0  0  0  0  0  0  0  0  0  0  0  0
   -5.5668  -10.4586   18.3792 O   0  0  0  0  0  0  0  0  0  0  0  0
   -3.0050   -8.4950   20.4588 C   0  0  0  0  0  3  0  0  0  0  0  0
   -5.6444   -7.5714   13.2136 S   0  0  0  0  0  1  0  0  0  0  0  0
   -7.9217   -6.4358   15.0323 N   0  0  0  0  0  1  0  0  0  0  0  0
   -9.2339  -10.3150   16.6033 C   0  0  0  0  0  2  0  0  0  0  0  0
   -2.9026   -9.7804   20.1397 C   0  0  0  0  0  3  0  0  0  0  0  0
   -6.8042   -8.3149   16.1069 C   0  0  0  0  0  2  0  0  0  0  0  0
   -6.4718   -9.2195   21.2477 C   0  0  0  0  0  3  0  0  0  0  0  0
   -4.2473   -7.8848   20.9561 C   0  0  0  0  0  3  0  0  0  0  0  0
   -7.9011  -10.3561   18.5748 N   0  0  0  0  0  0  0  0  0  0  0  0
   -7.2248   -8.3052   13.6108 C   0  0  0  0  0  2  0  0  0  0  0  0
   -1.6112  -10.3191   19.6424 C   0  0  0  0  0  1  0  0  0  0  0  0
   -6.7384  -10.4560   19.1426 C   0  0  0  0  0  0  0  0  0  0  0  0
   -6.6476  -10.5657   20.6267 C   0  0  0  0  0  2  0  0  0  0  0  0
   -4.5323  -10.3900   16.3297 O   0  0  0  0  0  0  0  0  0  0  0  0
   -8.0358  -10.2052   17.1576 C   0  0  0  0  0  0  0  0  0  0  0  0
  1 11  1  0
  1 20  1  0
  2  1  1  0
  2  5  1  0
  3  8  1  0
  3 11  1  0
  4 13  2  0
  5 17  1  0
  6 13  1  0
 10  6  2  0
 12  4  2  0
 14 17  2  0
 15  3  1  0
 15  7  1  0
 16 10  1  0
 17 18  1  0
 18 12  1  0
 19  2  2  0
 20 14  1  0
 20  9  2  0
M  RAD  8   1   2   3   2   6   2   7   2   8   3   9   3  10   2  11   3
M  RAD  5  12   2  13   2  15   3  16   2  18   3
M  END
$$$$

     RDKit          3D

 19 22  0  0  0  0  0  0  0  0999 V2000
   -6.2134  -12.1183   17.1717 C   0  0  0  0  0  2  0  0  0  0  0  0
   -7.9745   -7.9796   21.7326 C   0  0  0  0  0  3  0  0  0  0  0  0
   -6.6377  -11.3322   19.5162 C   0  0  0  0  0  0  0  0  0  0  0  0
   -5.4024   -8.5183   17.2877 N   0  0  0  0  0  2  0  0  0  0  0  0
   -7.6231   -9.1994   21.0393 C   0  0  0  0  0  0  0  0  0  0  0  0
   -5.9678   -9.9787   19.2482 C   0  0  0  0  0  3  0  0  0  0  0  0
   -5.1030   -8.7978   15.8769 C   0  0  0  0  0  3  0  0  0  0  0  0
   -5.2569  -10.3019   15.6340 C   0  0  0  0  0  2  0  0  0  0  0  0
   -6.3345   -7.6129   20.1354 C   0  0  0  0  0  3  0  0  0  0  0  0
   -5.3852  -10.8502   17.0232 C   0  0  0  0  0  3  0  0  0  0  0  0
   -6.2465  -12.5088   18.6594 C   0  0  0  0  0  2  0  0  0  0  0  0
   -6.6281   -8.9003   20.0564 C   0  0  0  0  0  0  0  0  0  0  0  0
   -7.2048   -7.0352   21.1832 C   0  0  0  0  0  3  0  0  0  0  0  0
   -8.0711  -10.3956   21.2539 N   0  0  0  0  0  0  0  0  0  0  0  0
   -6.0655   -9.7257   17.7459 C   0  0  0  0  0  3  0  0  0  0  0  0
   -3.6293   -6.9361   15.5818 O   0  0  0  0  0  1  0  0  0  0  0  0
   -7.5889  -11.4958   20.4577 C   0  0  0  0  0  3  0  0  0  0  0  0
   -3.6964   -8.3278   15.5172 C   0  0  0  0  0  3  0  0  0  0  0  0
   -2.7490   -8.8823   16.3811 O   0  0  0  0  0  1  0  0  0  0  0  0
  1 10  1  0
  1 11  1  0
  3 17  2  0
  5 14  2  0
  5  2  1  0
  6  3  1  0
  6 12  1  0
  7 18  1  0
  7  8  1  0
  7  4  1  0
  9 12  2  0
  9 13  1  0
 10  8  1  0
 10 15  1  0
 11  3  1  0
 12  5  1  0
 13  2  2  0
 15  4  1  0
 15  6  1  0
 16 18  1  0
 17 14  1  0
 18 19  1  0
M  RAD  8   1   3   2   2   4   2   6   2   7   2   8   3   9   2  10   2
M  RAD  7  11   3  13   2  15   2  16   2  17   2  18   2  19   2
M  END
$$$$

     RDKit          3D

 11 12  0  0  0  0  0  0  0  0999 V2000
   -6.0639   -7.0818   21.5272 C   0  0  0  0  0  2  0  0  0  0  0  0
   -7.8271   -8.7721   20.6295 C   0  0  0  0  0  3  0  0  0  0  0  0
   -7.2829   -9.9182   21.3403 N   0  0  0  0  0  2  0  0  0  0  0  0
   -5.4812   -6.3673   20.2987 C   0  0  0  0  0  2  0  0  0  0  0  0
   -8.3902   -6.7437   21.6986 O   0  0  0  0  0  0  0  0  0  0  0  0
   -5.9931   -8.2504   18.9154 C   0  0  0  0  0  2  0  0  0  0  0  0
   -7.2737  -10.3532   18.9554 C   0  0  0  0  0  2  0  0  0  0  0  0
   -6.0734   -6.7994   19.0296 N   0  0  0  0  0  2  0  0  0  0  0  0
   -7.4935   -7.4830   21.3279 C   0  0  0  0  0  0  0  0  0  0  0  0
   -7.1353  -10.9697   20.3391 C   0  0  0  0  0  2  0  0  0  0  0  0
   -7.3707   -8.8663   19.1754 C   0  0  0  0  0  3  0  0  0  0  0  0
  1  9  1  0
  2  9  1  0
  2  3  1  0
  4  1  1  0
  7 10  1  0
  8  6  1  0
  8  4  1  0
  9  5  2  0
 10  3  1  0
 11  6  1  0
 11  7  1  0
 11  2  1  0
M  RAD  8   1   3   2   2   3   2   4   3   6   3   7   3   8   2  10   3
M  RAD  1  11   2
M  END
$$$$
/tmp/tmp56vcdcbt
     RDKit          3D

 20 22  0  0  1  0  0  0  0  0999 V2000
   -3.8744   -8.3316   15.7102 C   0  0  0  0  0  3  0  0  0  0  0  0
   -7.1264   -9.1306   20.9373 C   0  0  0  0  0  0  0  0  0  0  0  0
   -5.1145   -8.9155   15.1156 C   0  0  0  0  0  2  0  0  0  0  0  0
   -3.9302   -7.3667   18.1409 C   0  0  0  0  0  3  0  0  0  0  0  0
   -4.7616   -7.2655   20.5117 C   0  0  0  0  0  3  0  0  0  0  0  0
   -5.6283   -7.2581   21.5422 C   0  0  0  0  0  3  0  0  0  0  0  0
   -6.9454  -10.5662   15.4449 C   0  0  0  0  0  2  0  0  0  0  0  0
   -8.3046  -10.8855   18.7707 C   0  0  0  0  0  3  0  0  0  0  0  0
   -8.5980  -13.0257   14.8522 O   0  0  0  0  0  1  0  0  0  0  0  0
   -4.8532   -7.8941   19.1641 C   0  0  0  0  0  0  0  0  0  0  0  0
   -3.8864   -7.8361   16.9187 C   0  0  0  0  0  0  0  0  0  0  0  0
   -7.9852  -10.3134   21.0599 N   0  0  0  0  0  2  0  0  0  0  0  0
   -7.5133  -11.5854   16.3796 C   0  0  0  0  0  0  0  0  0  0  0  0
   -7.7047  -12.9902   15.9232 C   0  0  0  0  0  2  0  0  0  0  0  0
   -6.5428   -9.5792   19.7918 C   0  0  0  0  0  0  0  0  0  0  0  0
   -5.5573  -10.1448   15.8917 C   0  0  0  0  0  2  0  0  0  0  0  0
   -5.6005   -8.9713   18.8713 C   0  0  0  0  0  3  0  0  0  0  0  0
   -7.9076  -11.2387   17.5765 C   0  0  0  0  0  0  0  0  0  0  0  0
   -7.3309  -10.7668   19.9050 C   0  0  0  0  0  3  0  0  0  0  0  0
   -7.0269   -7.8096   21.5986 C   0  0  0  0  0  2  0  0  0  0  0  0
  1 11  2  0
  2 20  1  0
  2 12  1  0
  3  1  1  0
  3 16  1  0
  4 10  1  0
  5  6  2  0
  6 20  1  0
  7 13  1  0
  9 14  1  0
 10 17  2  0
 10  5  1  0
 11  4  2  0
 13 18  2  0
 14 13  1  0
 15 19  1  0
 15  2  2  0
 16  7  1  0
 17 15  1  0
 18  8  2  0
 19  8  1  0
 19 12  1  0
M  RAD  8   1   2   3   3   4   2   5   2   6   2   7   3   8   2   9   2
M  RAD  6  12   2  14   3  16   3  17   2  19   2  20   3
M  END
$$$$
/tmp/tmp_7g26aqi
     RDKit          3D

 20 24  0  0  1  0  0  0  0  0999 V2000
   -6.9540   -7.5167   19.8292 C   0  0  0  0  0  0  0  0  0  0  0  0
   -6.1058   -6.1308   18.1970 N   0  0  0  0  0  0  0  0  0  0  0  0
   -6.4654  -10.3498   17.3956 C   0  0  0  0  0  0  0  0  0  0  0  0
   -6.2575  -11.6906   14.6343 C   0  0  0  0  0  3  0  0  0  0  0  0
   -5.1879   -8.3555   14.7909 N   0  0  0  0  0  1  0  0  0  0  0  0
   -7.5521   -7.9123   21.0994 C   0  0  0  0  0  3  0  0  0  0  0  0
   -6.7547   -6.0793   19.4944 C   0  0  0  0  0  2  0  0  0  0  0  0
   -6.5654   -9.7603   18.6826 C   0  0  0  0  0  0  0  0  0  0  0  0
   -6.6170  -10.6497   19.7913 C   0  0  0  0  0  0  0  0  0  0  0  0
   -6.2535  -12.4061   15.8826 C   0  0  0  0  0  3  0  0  0  0  0  0
   -6.4734   -9.7152   16.1860 C   0  0  0  0  0  0  0  0  0  0  0  0
   -6.4889   -8.9641   14.9996 C   0  0  0  0  0  3  0  0  0  0  0  0
   -5.9780   -7.3603   17.8311 C   0  0  0  0  0  3  0  0  0  0  0  0
   -6.3517  -12.5917   18.3255 C   0  0  0  0  0  3  0  0  0  0  0  0
   -7.4749   -9.0985   21.6825 C   0  0  0  0  0  3  0  0  0  0  0  0
   -6.5193   -8.2755   18.8304 C   0  0  0  0  0  0  0  0  0  0  0  0
   -6.8243  -10.2507   21.1491 N   0  0  0  0  0  2  0  0  0  0  0  0
   -6.3750  -10.3568   14.8800 C   0  0  0  0  0  0  0  0  0  0  0  0
   -6.4838  -12.0315   19.5929 C   0  0  0  0  0  3  0  0  0  0  0  0
   -6.3566  -11.7795   17.2015 C   0  0  0  0  0  0  0  0  0  0  0  0
  1  6  1  0
  2  7  1  0
  3  8  2  0
  4 18  1  0
  4 10  2  0
  6 15  2  0
  7  1  1  0
  8  9  1  0
  9 17  1  0
 10 20  1  0
 11  3  1  0
 12  5  1  0
 12 11  1  0
 13  2  2  0
 13 16  1  0
 14 19  1  0
 16  8  1  0
 16  1  2  0
 17 15  1  0
 18 12  1  0
 18 11  2  0
 19  9  2  0
 20  3  1  0
 20 14  2  0
M  RAD  8   4   2   5   3   6   2   7   3  10   2  12   2  13   2  14   2
M  RAD  3  15   2  17   2  19   2
M  END
$$$$
/tmp/tmpjj_sts3u
     RDKit          3D

 20 25  0  0  1  0  0  0  0  0999 V2000
   -6.9071  -11.8575   17.8166 C   0  0  0  0  0  3  0  0  0  0  0  0
   -5.8392  -11.9885   16.7203 C   0  0  0  0  0  0  0  0  0  0  0  0
   -6.3127   -9.5349   18.5525 C   0  0  0  0  0  0  0  0  0  0  0  0
   -6.4921  -10.8484   18.8710 C   0  0  0  0  0  0  0  0  0  0  0  0
   -6.9909   -9.3902   21.5744 C   0  0  0  0  0  3  0  0  0  0  0  0
   -7.2275   -7.0350   20.9854 C   0  0  0  0  0  2  0  0  0  0  0  0
   -5.7873   -8.5641   19.5879 C   0  0  0  0  0  3  0  0  0  0  0  0
   -6.8894   -8.7415   14.8486 C   0  0  0  0  0  1  0  0  0  0  0  0
   -5.8045  -11.4345   14.3360 C   0  0  0  0  0  2  0  0  0  0  0  0
   -6.7378   -8.4055   20.7188 C   0  0  0  0  0  0  0  0  0  0  0  0
   -5.8677  -13.2667   15.9864 N   0  0  0  0  0  2  0  0  0  0  0  0
   -7.3541  -13.2060   18.3874 C   0  0  0  0  0  1  0  0  0  0  0  0
   -5.7926  -10.8397   15.7335 C   0  0  0  0  0  0  0  0  0  0  0  0
   -6.8340   -9.7423   15.9916 C   0  0  0  0  0  3  0  0  0  0  0  0
   -6.2534  -11.3773   20.2446 C   0  0  0  0  0  3  0  0  0  0  0  0
   -5.4720   -6.8941   18.9123 S   0  0  0  0  0  0  0  0  0  0  0  0
   -6.2308   -6.0848   20.3557 C   0  0  0  0  0  2  0  0  0  0  0  0
   -6.4854  -10.7620   21.4098 C   0  0  0  0  0  3  0  0  0  0  0  0
   -6.5817  -12.0982   15.4550 C   0  0  1  0  0  0  0  0  0  0  0  0
   -6.5098   -9.0217   17.2171 N   0  0  0  0  0  2  0  0  0  0  0  0
  1 12  1  0
  1  4  1  0
  2 11  1  0
  2  1  1  0
  3  4  2  0
  4 15  1  0
  7  3  1  0
  7 10  1  0
 10  6  1  0
 10  5  2  0
 13  9  1  0
 13 14  1  0
 13  2  1  0
 14  8  1  0
 14 20  1  0
 15 18  2  0
 16  7  1  0
 16 17  1  0
 17  6  1  0
 18  5  1  0
 19  9  1  1
 19 13  1  0
 19 11  1  0
 19  2  1  0
 20  3  1  0
M  RAD  8   1   2   5   2   6   3   7   2   8   2   9   3  11   2  12   2
M  RAD  5  14   2  15   2  17   3  18   2  20   2
M  END
$$$$
/tmp/tmpt_ud2ron
     RDKit          3D

 20 23  0  0  1  0  0  0  0  0999 V2000
   -5.3444  -13.3289   15.2962 C   0  0  0  0  0  3  0  0  0  0  0  0
   -6.3050   -8.0139   17.3804 C   0  0  0  0  0  0  0  0  0  0  0  0
   -6.1212   -7.2680   18.5427 C   0  0  0  0  0  0  0  0  0  0  0  0
   -6.6113   -9.3056   19.8053 C   0  0  0  0  0  0  0  0  0  0  0  0
   -6.7779   -9.9798   18.6293 N   0  0  0  0  0  0  0  0  0  0  0  0
   -6.6203   -9.3353   17.4444 C   0  0  0  0  0  0  0  0  0  0  0  0
   -6.2487  -12.2892   15.5198 C   0  0  0  0  0  3  0  0  0  0  0  0
   -5.6174   -5.1972   19.6901 C   0  0  0  0  0  3  0  0  0  0  0  0
   -5.7681   -5.8396   20.9231 C   0  0  0  0  0  3  0  0  0  0  0  0
   -5.7934   -5.9086   18.5001 C   0  0  0  0  0  3  0  0  0  0  0  0
   -3.5328  -11.8271   15.7077 N   0  0  0  0  0  0  0  0  0  0  0  0
   -6.2764   -7.9274   19.7900 C   0  0  0  0  0  0  0  0  0  0  0  0
   -5.7814  -11.0120   15.8377 C   0  0  0  0  0  0  0  0  0  0  0  0
   -3.9748  -13.0751   15.3958 C   0  0  0  0  0  3  0  0  0  0  0  0
   -4.3972  -10.8007   15.9292 C   0  0  0  0  0  3  0  0  0  0  0  0
   -6.2056   -7.5558   16.0468 N   0  0  0  0  0  2  0  0  0  0  0  0
   -6.0961   -7.1979   20.9746 C   0  0  0  0  0  3  0  0  0  0  0  0
   -6.7683   -9.9093   16.0823 C   0  0  0  0  0  3  0  0  0  0  0  0
   -6.4874   -8.6926   15.1669 C   0  0  0  0  0  2  0  0  0  0  0  0
   -6.7894  -10.0480   21.0876 C   0  0  0  0  0  1  0  0  0  0  0  0
  1  7  2  0
  2  3  2  0
  3 10  1  0
  3 12  1  0
  4 12  2  0
  4 20  1  0
  5  4  1  0
  6  2  1  0
  6  5  2  0
  8  9  1  0
 10  8  2  0
 11 15  1  0
 11 14  2  0
 12 17  1  0
 13  7  1  0
 14  1  1  0
 15 13  2  0
 16  2  1  0
 17  9  2  0
 18 13  1  0
 18  6  1  0
 19 18  1  0
 19 16  1  0
M  RAD  8   1   2   7   2   8   2   9   2  10   2  14   2  15   2  16   2
M  RAD  4  17   2  18   2  19   3  20   2
M  END
$$$$
/tmp/tmplvz4y0ra
     RDKit          3D

 20 24  0  0  1  0  0  0  0  0999 V2000
   -4.5923  -11.7048   15.5494 N   0  0  0  0  0  0  0  0  0  0  0  0
   -7.4754  -11.2940   20.5160 C   0  0  0  0  0  3  0  0  0  0  0  0
   -4.9972   -9.0831   14.9019 C   0  0  0  0  0  0  0  0  0  0  0  0
   -6.6487  -11.6215   18.2041 C   0  0  0  0  0  2  0  0  0  0  0  0
   -7.8228  -10.5088   21.5802 N   0  0  0  0  0  0  0  0  0  0  0  0
   -7.1569   -8.5781   20.3984 C   0  0  0  0  0  0  0  0  0  0  0  0
   -6.9372  -10.7265   19.3477 C   0  0  0  0  0  0  0  0  0  0  0  0
   -5.6216   -8.5141   17.0263 C   0  0  0  0  0  0  0  0  0  0  0  0
   -4.6207  -11.4047   14.1129 C   0  0  0  0  0  2  0  0  0  0  0  0
   -6.7937   -9.3317   19.3111 C   0  0  0  0  0  0  0  0  0  0  0  0
   -5.3317  -11.4333   17.7260 O   0  0  0  0  0  0  0  0  0  0  0  0
   -4.9487   -7.5337   16.5134 N   0  0  0  0  0  0  0  0  0  0  0  0
   -7.6732   -9.1546   21.5515 C   0  0  0  0  0  3  0  0  0  0  0  0
   -6.2575   -8.3402   18.3541 C   0  0  0  0  0  0  0  0  0  0  0  0
   -4.5161   -7.8989   15.2163 C   0  0  0  0  0  3  0  0  0  0  0  0
   -5.1724  -10.9499   16.4390 C   0  0  0  0  0  0  0  0  0  0  0  0
   -5.8018   -9.6404   16.0369 C   0  0  0  0  0  3  0  0  0  0  0  0
   -6.3271   -7.1561   18.8914 N   0  0  0  0  0  0  0  0  0  0  0  0
   -4.3872   -9.9207   13.8266 C   0  0  0  0  0  2  0  0  0  0  0  0
   -6.8909   -7.2098   20.1735 N   0  0  0  0  0  2  0  0  0  0  0  0
  1 16  2  0
  2  5  2  0
  4  7  1  0
  6 13  2  0
  7  2  1  0
  8 14  1  0
  9  1  1  0
 10  7  2  0
 10  6  1  0
 11  4  1  0
 12  8  2  0
 13  5  1  0
 14 18  2  0
 14 10  1  0
 15  3  2  0
 15 12  1  0
 16 11  1  0
 17  3  1  0
 17 16  1  0
 17  8  1  0
 18 20  1  0
 19  9  1  0
 19  3  1  0
 20  6  1  0
M  RAD  8   2   2   4   3   9   3  13   2  15   2  17   2  19   3  20   2
M  END
$$$$
/tmp/tmpbwtj4phi
     RDKit          3D

 20 21  0  0  1  0  0  0  0  0999 V2000
   -5.3699   -8.1352   17.0087 N   0  0  0  0  0  2  0  0  0  0  0  0
   -5.5214   -7.9334   19.4286 C   0  0  0  0  0  3  0  0  0  0  0  0
   -5.1003  -10.5640   17.0669 C   0  0  0  0  0  0  0  0  0  0  0  0
   -8.5731   -9.5722   20.9935 C   0  0  0  0  0  0  0  0  0  0  0  0
   -9.6437  -10.2234   20.6719 N   0  0  0  0  0  2  0  0  0  0  0  0
   -5.8958  -11.7294   17.5862 C   0  0  0  0  0  2  0  0  0  0  0  0
   -7.2195  -11.3329   18.1615 C   0  0  0  0  0  3  0  0  0  0  0  0
   -6.2809   -7.8587   18.1086 C   0  0  0  0  0  2  0  0  0  0  0  0
   -3.7476   -9.7264   13.3812 C   0  0  0  0  0  2  0  0  0  0  0  0
   -5.7751   -9.3959   16.3935 C   0  0  0  0  0  3  0  0  0  0  0  0
   -8.5631   -8.8107   22.1972 N   0  0  0  0  0  1  0  0  0  0  0  0
   -6.3916   -7.3548   20.5212 C   0  0  0  0  0  2  0  0  0  0  0  0
   -3.8835  -10.5902   17.1670 O   0  0  0  0  0  0  0  0  0  0  0  0
   -6.1269   -8.8503   20.5110 C   0  0  0  0  0  3  0  0  0  0  0  0
   -6.3530   -8.4688   14.2646 O   0  0  0  0  0  1  0  0  0  0  0  0
   -2.4195   -9.4388   13.0712 O   0  0  0  0  0  1  0  0  0  0  0  0
   -5.5045   -9.3847   14.8892 C   0  0  0  0  0  3  0  0  0  0  0  0
   -4.1175   -9.0412   14.6072 N   0  0  0  0  0  2  0  0  0  0  0  0
   -7.3705   -9.6188   20.1302 C   0  0  0  0  0  0  0  0  0  0  0  0
   -7.2994  -10.4913   19.1555 C   0  0  0  0  0  0  0  0  0  0  0  0
  1  8  1  0
  2  8  1  0
  2 14  1  0
  2 12  1  0
  3  6  1  0
  4 11  1  0
  5  4  2  0
  6  7  1  0
  7 20  2  0
  9 18  1  0
  9 16  1  0
 10 17  1  0
 10  3  1  0
 10  1  1  0
 13  3  2  0
 14 12  1  0
 17 15  1  0
 18 17  1  0
 19 14  1  0
 19  4  1  0
 20 19  2  0
M  RAD  8   1   2   2   2   5   2   6   3   7   2   8   3   9   3  10   2
M  RAD  7  11   3  12   3  14   2  15   2  16   2  17   2  18   2
M  END
$$$$
/tmp/tmp2883_v1u
     RDKit          3D

 20 23  0  0  1  0  0  0  0  0999 V2000
   -8.2918  -11.6869   16.8243 C   0  0  0  0  0  3  0  0  0  0  0  0
   -5.8269  -12.1077   16.3198 C   0  0  0  0  0  3  0  0  0  0  0  0
   -8.1897  -14.1440   18.0814 N   0  0  0  0  0  2  0  0  0  0  0  0
   -5.7754  -13.3884   16.9739 C   0  0  0  0  0  3  0  0  0  0  0  0
   -6.5606  -11.1391   20.5072 C   0  0  0  0  0  3  0  0  0  0  0  0
   -6.9505   -9.9583   15.5612 C   0  0  0  0  0  2  0  0  0  0  0  0
   -8.1448  -12.9051   17.4191 C   0  0  0  0  0  0  0  0  0  0  0  0
   -7.0358  -11.2838   16.2421 C   0  0  0  0  0  0  0  0  0  0  0  0
   -5.9282   -9.0825   21.0327 C   0  0  0  0  0  0  0  0  0  0  0  0
   -6.0958   -7.6798   21.4050 C   0  0  0  0  0  3  0  0  0  0  0  0
   -7.1382   -7.5083   15.8832 C   0  0  0  0  0  1  0  0  0  0  0  0
   -6.8829   -8.8299   16.5792 C   0  0  0  0  0  3  0  0  0  0  0  0
   -5.9343   -7.2141   19.0343 N   0  0  0  0  0  0  0  0  0  0  0  0
   -5.8239  -10.7858   19.5034 N   0  0  0  0  0  0  0  0  0  0  0  0
   -5.6605   -8.4464   18.6924 C   0  0  0  0  0  0  0  0  0  0  0  0
   -5.2859   -9.4570   19.7488 C   0  0  0  0  0  3  0  0  0  0  0  0
   -6.0728   -6.7880   20.4081 C   0  0  0  0  0  3  0  0  0  0  0  0
   -7.0059  -13.6747   17.4867 C   0  0  0  0  0  0  0  0  0  0  0  0
   -6.6743  -10.0690   21.4936 C   0  0  0  0  0  3  0  0  0  0  0  0
   -5.5178   -8.7982   17.2496 C   0  0  0  0  0  2  0  0  0  0  0  0
  2  4  1  0
  2  8  2  0
  3  7  1  0
  4 18  2  0
  5 19  1  0
  6  8  1  0
  7  1  2  0
  8  1  1  0
  9 19  2  0
 10  9  1  0
 12 11  1  0
 12 20  1  0
 12  6  1  0
 13 17  1  0
 14  5  2  0
 15 13  2  0
 16 15  1  0
 16 14  1  0
 16  9  1  0
 17 10  2  0
 18  3  1  0
 18  7  1  0
 20 15  1  0
M  RAD  8   1   2   2   2   3   2   4   2   5   2   6   3  10   2  11   2
M  RAD  5  12   2  16   2  17   2  19   2  20   3
M  END
$$$$

     RDKit          3D

 17 19  0  0  0  0  0  0  0  0999 V2000
   -4.0070   -9.1945   17.4960 C   0  0  0  0  0  2  0  0  0  0  0  0
   -4.9748   -9.6490   14.7519 C   0  0  0  0  0  2  0  0  0  0  0  0
   -9.3285  -10.5371   19.1439 N   0  0  0  0  0  0  0  0  0  0  0  0
   -7.3385   -9.5874   20.3344 C   0  0  0  0  0  0  0  0  0  0  0  0
   -7.2102  -10.0109   15.6304 N   0  0  0  0  0  1  0  0  0  0  0  0
   -5.4573   -9.6308   17.2810 C   0  0  0  0  0  3  0  0  0  0  0  0
   -5.9751   -9.2844   15.8673 C   0  0  1  0  0  0  0  0  0  0  0  0
   -6.3111   -9.0544   18.3101 N   0  0  0  0  0  2  0  0  0  0  0  0
   -6.6451  -10.1217   19.2375 C   0  0  0  0  0  3  0  0  0  0  0  0
   -7.9857   -9.0641   21.3995 C   0  0  0  0  0  3  0  0  0  0  0  0
  -10.0005  -10.0019   20.2437 C   0  0  0  0  0  3  0  0  0  0  0  0
   -8.0333  -10.2882   19.2784 C   0  0  0  0  0  0  0  0  0  0  0  0
   -9.3547   -9.3107   21.2999 N   0  0  0  0  0  0  0  0  0  0  0  0
   -3.7498  -10.4317   15.2293 C   0  0  0  0  0  2  0  0  0  0  0  0
   -6.2356   -7.9148   15.7851 O   0  0  0  0  0  1  0  0  0  0  0  0
   -3.1337   -9.7328   16.4019 C   0  0  0  0  0  0  0  0  0  0  0  0
   -1.9221   -9.6155   16.4748 O   0  0  0  0  0  0  0  0  0  0  0  0
  1  6  1  0
  2  7  1  0
  3 11  2  0
  4 10  1  0
  6  8  1  0
  7  5  1  6
  7 15  1  0
  7  6  1  0
  9  8  1  0
  9 12  1  0
  9  4  1  0
 10 13  2  0
 11 13  1  0
 12  3  1  0
 12  4  2  0
 14  2  1  0
 14 16  1  0
 16  1  1  0
 17 16  2  0
M  RAD  8   1   3   2   3   5   3   6   2   8   2   9   2  10   2  11   2
M  RAD  2  14   3  15   2
M  END
$$$$
/tmp/tmpit_v47rc
     RDKit          3D

 20 22  0  0  0  0  0  0  0  0999 V2000
   -6.6245   -9.9830   19.4195 C   0  0  0  0  0  0  0  0  0  0  0  0
   -6.9889  -12.3447   20.1042 N   0  0  0  0  0  1  0  0  0  0  0  0
   -5.4888   -7.4627   15.6018 C   0  0  0  0  0  2  0  0  0  0  0  0
   -7.0759  -10.9470   20.3684 C   0  0  0  0  0  0  0  0  0  0  0  0
   -6.7402   -6.3471   19.8922 N   0  0  0  0  0  0  0  0  0  0  0  0
   -3.9620  -10.0155   15.3403 C   0  0  0  0  0  3  0  0  0  0  0  0
   -6.8447   -8.6282   19.7471 C   0  0  0  0  0  0  0  0  0  0  0  0
   -6.3167   -7.9168   16.7074 N   0  0  0  0  0  2  0  0  0  0  0  0
   -5.9430   -7.1464   17.8126 N   0  0  0  0  0  2  0  0  0  0  0  0
   -5.3126  -11.5272   17.9997 C   0  0  0  0  0  3  0  0  0  0  0  0
   -7.3402   -6.8019   21.1435 C   0  0  0  0  0  2  0  0  0  0  0  0
   -7.3707   -8.2753   20.9656 C   0  0  0  0  0  0  0  0  0  0  0  0
   -3.6653  -10.9854   16.2112 C   0  0  0  0  0  3  0  0  0  0  0  0
   -6.4846   -7.3524   19.1169 C   0  0  0  0  0  0  0  0  0  0  0  0
   -5.3439   -9.8471   14.7835 C   0  0  0  0  0  2  0  0  0  0  0  0
   -7.6267  -10.5453   21.5523 N   0  0  0  0  0  0  0  0  0  0  0  0
   -5.9479  -10.3656   18.1589 C   0  0  0  0  0  3  0  0  0  0  0  0
   -5.6199   -8.3981   14.4057 C   0  0  0  0  0  2  0  0  0  0  0  0
   -4.6947  -11.9572   16.7066 C   0  0  0  0  0  2  0  0  0  0  0  0
   -7.7688   -9.2343   21.8828 C   0  0  0  0  0  3  0  0  0  0  0  0
  1  7  2  0
  1  4  1  0
  2  4  1  0
  3  8  1  0
  4 16  2  0
  5 11  1  0
  6 13  2  0
  7 12  1  0
  8  9  1  0
  9 14  1  0
 10 17  2  0
 12 11  1  0
 12 20  2  0
 13 19  1  0
 14  7  1  0
 14  5  2  0
 15 18  1  0
 15  6  1  0
 16 20  1  0
 17  1  1  0
 18  3  1  0
 19 10  1  0
M  RAD  8   2   3   3   3   6   2   8   2   9   2  10   2  11   3  13   2
M  RAD  5  15   3  17   2  18   3  19   3  20   2
M  END
$$$$

     RDKit          3D

 19 23  0  0  0  0  0  0  0  0999 V2000
   -6.5381   -9.6507   18.5923 C   0  0  0  0  0  0  0  0  0  0  0  0
   -5.5602   -7.7417   16.4791 C   0  0  1  0  0  0  0  0  0  0  0  0
   -6.3340   -6.8913   17.4030 N   0  0  0  0  0  2  0  0  0  0  0  0
   -7.1450  -10.9161   19.0764 C   0  0  0  0  0  3  0  0  0  0  0  0
   -6.0136   -7.1056   18.8191 C   0  0  0  0  0  2  0  0  0  0  0  0
   -6.9287   -7.3083   21.5749 C   0  0  0  0  0  1  0  0  0  0  0  0
   -4.4508   -7.0665   15.7753 C   0  0  0  0  0  2  0  0  0  0  0  0
   -5.3595   -8.6307   14.2839 C   0  0  0  0  0  2  0  0  0  0  0  0
   -4.7471   -8.8832   17.0812 C   0  0  0  0  0  3  0  0  0  0  0  0
   -6.9199   -8.4998   20.6757 C   0  0  0  0  0  0  0  0  0  0  0  0
   -7.1376  -10.9671   20.5786 C   0  0  0  0  0  3  0  0  0  0  0  0
   -6.3031  -11.9367   18.4603 N   0  0  0  0  0  0  0  0  0  0  0  0
   -5.4784  -11.3733   17.6325 C   0  0  0  0  0  3  0  0  0  0  0  0
   -4.0655   -8.3322   15.0351 C   0  0  0  0  0  3  0  0  0  0  0  0
   -5.6431   -9.9272   17.6650 C   0  0  0  0  0  0  0  0  0  0  0  0
   -6.6067   -8.3904   19.3665 C   0  0  0  0  0  0  0  0  0  0  0  0
   -3.9247   -9.3400   16.0284 O   0  0  0  0  0  0  0  0  0  0  0  0
   -7.0932   -9.8381   21.3035 C   0  0  0  0  0  3  0  0  0  0  0  0
   -6.4147   -8.2521   15.3183 C   0  0  0  0  0  2  0  0  0  0  0  0
  1  4  1  0
  1 16  1  0
  2 19  1  6
  2  9  1  0
  2  3  1  0
  3  5  1  0
  4 11  1  0
  5 16  1  0
  7  2  1  0
  8 19  1  0
  9 17  1  0
  9 15  1  0
 10 18  1  0
 10  6  1  0
 11 18  2  0
 12  4  1  0
 13 15  1  0
 13 12  2  0
 14  8  1  0
 14  7  1  0
 14 17  1  0
 15  1  2  0
 16 10  2  0
M  RAD  8   3   2   4   2   5   3   6   2   7   3   8   3   9   2  11   2
M  RAD  4  13   2  14   2  18   2  19   3
M  END
$$$$
/tmp/tmpejpcul8j
     RDKit          3D

 20 21  0  0  1  0  0  0  0  0999 V2000
   -6.2113  -11.4103   19.1154 N   0  0  0  0  0  2  0  0  0  0  0  0
   -4.2214  -13.3229   17.6465 O   0  0  0  0  0  0  0  0  0  0  0  0
   -6.1493  -10.2744   21.2189 N   0  0  0  0  0  0  0  0  0  0  0  0
   -6.4206   -8.8903   17.2651 C   0  0  0  0  0  2  0  0  0  0  0  0
   -5.9023   -7.5696   15.0613 C   0  0  2  0  0  0  0  0  0  0  0  0
   -6.2618   -7.6757   16.4774 N   0  0  0  0  0  0  0  0  0  0  0  0
   -5.1741  -13.4588   18.3975 C   0  0  0  0  0  0  0  0  0  0  0  0
   -6.9120   -6.9873   18.5157 N   0  0  0  0  0  0  0  0  0  0  0  0
   -6.9682   -6.8980   14.3379 N   0  0  0  0  0  1  0  0  0  0  0  0
   -6.6010   -6.5863   17.3310 C   0  0  0  0  0  3  0  0  0  0  0  0
   -6.7901   -8.3802   18.5761 N   0  0  0  0  0  0  0  0  0  0  0  0
   -6.9018  -14.3473   16.8709 C   0  0  0  0  0  1  0  0  0  0  0  0
   -7.4454   -8.4463   20.8752 N   0  0  0  0  0  0  0  0  0  0  0  0
   -6.1571  -14.5608   18.1750 C   0  0  0  0  0  2  0  0  0  0  0  0
   -5.3632  -12.5139   19.5346 C   0  0  0  0  0  2  0  0  0  0  0  0
   -7.4174   -9.1862   19.6207 C   0  0  0  0  0  3  0  0  0  0  0  0
   -5.6815   -8.9414   14.4446 C   0  0  0  0  0  1  0  0  0  0  0  0
   -4.6228   -6.7674   14.9182 C   0  0  0  0  0  1  0  0  0  0  0  0
   -6.5464  -10.3355   19.9938 C   0  0  0  0  0  0  0  0  0  0  0  0
   -6.7253   -9.0843   21.7394 C   0  0  0  0  0  3  0  0  0  0  0  0
  1 19  1  0
  2  7  2  0
  3 20  1  0
  4 11  1  0
  5 18  1  1
  5  6  1  0
  6  4  1  0
  6 10  1  0
  7 15  1  0
  9  5  1  0
 10  8  2  0
 11  8  1  0
 12 14  1  0
 13 20  2  0
 14  7  1  0
 15  1  1  0
 16 11  1  0
 16 19  1  0
 16 13  1  0
 17  5  1  0
 19  3  2  0
M  RAD  8   1   2   4   3   9   3  10   2  12   2  14   3  15   3  16   2
M  RAD  3  17   2  18   2  20   2
M  END
$$$$
/tmp/tmphez57g5r
     RDKit          3D

 20 23  0  0  1  0  0  0  0  0999 V2000
   -5.1700  -11.5778   15.3494 C   0  0  0  0  0  2  0  0  0  0  0  0
   -4.5596   -6.9557   14.4025 O   0  0  0  0  0  0  0  0  0  0  0  0
   -7.0167   -8.7403   20.0037 C   0  0  0  0  0  0  0  0  0  0  0  0
   -5.5969   -8.6422   17.7501 C   0  0  0  0  0  0  0  0  0  0  0  0
   -6.1679   -7.4819   18.2378 N   0  0  0  0  0  0  0  0  0  0  0  0
   -7.0265   -7.3007   21.6457 C   0  0  0  0  0  3  0  0  0  0  0  0
   -6.2154   -9.7588   19.6719 C   0  0  0  0  0  0  0  0  0  0  0  0
   -6.2944  -12.4419   14.8002 C   0  0  0  0  0  2  0  0  0  0  0  0
   -6.4420   -9.6896   21.8947 N   0  0  0  0  0  0  0  0  0  0  0  0
   -5.9233  -10.4232   20.8568 C   0  0  0  0  0  3  0  0  0  0  0  0
   -4.9598   -8.6382   16.4786 N   0  0  0  0  0  0  0  0  0  0  0  0
   -7.7768  -12.3885   16.8108 C   0  0  0  0  0  1  0  0  0  0  0  0
   -4.5675   -7.9555   15.1661 C   0  0  0  0  0  0  0  0  0  0  0  0
   -5.1953  -10.2022   14.7072 C   0  0  0  0  0  2  0  0  0  0  0  0
   -6.8674   -7.5508   19.4069 C   0  0  0  0  0  0  0  0  0  0  0  0
   -7.0936   -8.6513   21.3163 C   0  0  0  0  0  0  0  0  0  0  0  0
   -5.5702   -9.7587   18.5095 O   0  0  0  0  0  0  0  0  0  0  0  0
   -6.9042   -6.5955   20.4205 C   0  0  0  0  0  3  0  0  0  0  0  0
   -4.2586   -9.2763   15.4568 C   0  0  0  0  0  3  0  0  0  0  0  0
   -7.6450  -12.0040   15.3487 C   0  0  0  0  0  2  0  0  0  0  0  0
  2 13  2  0
  3 16  1  0
  4  5  2  0
  4 17  1  0
  5 15  1  0
  7  3  1  0
  7 10  2  0
  8 20  1  0
  8  1  1  0
 10  9  1  0
 11  4  1  0
 13 19  1  0
 13 11  1  0
 14  1  1  0
 15  3  2  0
 15 18  1  0
 16  6  1  0
 16  9  2  0
 17  7  1  0
 18  6  2  0
 19 14  1  0
 19 11  1  0
 20 12  1  0
M  RAD  8   1   3   6   2   8   3  10   2  12   2  14   3  18   2  19   2
M  RAD  1  20   3
M  END
$$$$

     RDKit          3D

  9  9  0  0  0  0  0  0  0  0999 V2000
   -5.6104   -8.7066   20.1570 C   0  0  0  0  0  2  0  0  0  0  0  0
   -7.0239   -8.1347   14.8378 N   0  0  0  0  0  2  0  0  0  0  0  0
   -5.8772   -8.1093   18.9219 C   0  0  0  0  0  0  0  0  0  0  0  0
   -6.7065  -11.0027   17.3258 O   0  0  0  0  0  1  0  0  0  0  0  0
   -6.3242  -10.8341   18.6117 N   0  0  0  0  0  2  0  0  0  0  0  0
   -5.9500   -6.9376   18.1085 N   0  0  0  0  0  2  0  0  0  0  0  0
   -6.3316   -6.9636   16.7576 N   0  0  0  0  0  2  0  0  0  0  0  0
   -6.0138   -9.5367   19.1077 C   0  0  0  0  0  0  0  0  0  0  0  0
   -6.6804   -8.1688   16.0810 C   0  0  0  0  0  3  0  0  0  0  0  0
  2  9  2  0
  3  8  2  0
  3  1  1  0
  4  5  1  0
  5  8  1  0
  6  3  1  0
  7  6  1  0
  8  1  1  0
  9  7  1  0
M  RAD  7   1   3   2   2   4   2   5   2   6   2   7   2   9   2
M  END
$$$$
/tmp/tmpo7i99w8n
     RDKit          3D

 20 21  0  0  1  0  0  0  0  0999 V2000
   -6.8125  -12.4082   17.4002 C   0  0  0  0  0  0  0  0  0  0  0  0
   -7.2906  -12.0242   18.5576 C   0  0  0  0  0  0  0  0  0  0  0  0
   -7.5529   -9.5976   21.1984 C   0  0  0  0  0  3  0  0  0  0  0  0
   -6.1227   -8.6112   15.6397 C   0  0  0  0  0  2  0  0  0  0  0  0
   -7.0696   -8.0476   16.7003 C   0  0  0  0  0  2  0  0  0  0  0  0
   -2.8581   -9.0309   15.3745 C   0  0  0  0  0  1  0  0  0  0  0  0
   -6.9543  -10.2907   20.2265 C   0  0  0  0  0  0  0  0  0  0  0  0
   -4.8782   -9.2667   16.2468 C   0  0  0  0  0  3  0  0  0  0  0  0
   -7.3353  -13.6461   16.7664 C   0  0  0  0  0  1  0  0  0  0  0  0
   -7.6600  -11.4848   19.6921 C   0  0  0  0  0  3  0  0  0  0  0  0
   -4.0489   -9.7448   15.2303 O   0  0  0  0  0  0  0  0  0  0  0  0
   -6.1835   -6.9678   18.6211 C   0  0  0  0  0  2  0  0  0  0  0  0
   -6.5787   -6.7796   17.2283 N   0  0  0  0  0  2  0  0  0  0  0  0
   -7.4019   -7.0799   19.5318 C   0  0  0  0  0  2  0  0  0  0  0  0
   -6.9794   -7.1824   20.9672 C   0  0  0  0  0  3  0  0  0  0  0  0
   -5.3457  -10.0837   18.4427 C   0  0  0  0  0  0  0  0  0  0  0  0
   -7.0726   -8.2961   21.7062 C   0  0  0  0  0  3  0  0  0  0  0  0
   -5.6483   -9.8355   19.6831 C   0  0  0  0  0  3  0  0  0  0  0  0
   -5.2454  -10.3806   17.1782 C   0  0  0  0  0  0  0  0  0  0  0  0
   -5.9013  -11.5617   16.6656 N   0  0  0  0  0  2  0  0  0  0  0  0
  1  2  2  0
  2 10  2  0
  3 17  1  0
  4  8  1  0
  4  5  1  0
  5 13  1  0
  6 11  1  0
  7  3  2  0
  8 11  1  0
  8 19  1  0
  9  1  1  0
 10  7  1  0
 12 14  1  0
 13 12  1  0
 14 15  1  0
 15 17  2  0
 16 18  2  0
 18  7  1  0
 19 16  2  0
 20 19  1  0
 20  1  1  0
M  RAD  8   3   2   4   3   5   3   6   2   8   2   9   2  10   2  12   3
M  RAD  6  13   2  14   3  15   2  17   2  18   2  20   2
M  END
$$$$
/tmp/tmp18u4eo30
     RDKit          3D

 20 22  0  0  1  0  0  0  0  0999 V2000
   -5.6635  -10.7944   15.8586 C   0  0  0  0  0  3  0  0  0  0  0  0
   -5.6691   -7.6033   18.4869 C   0  0  0  0  0  3  0  0  0  0  0  0
   -6.9850   -6.3264   20.0622 C   0  0  0  0  0  2  0  0  0  0  0  0
   -8.6707  -12.4973   14.8129 C   0  0  0  0  0  1  0  0  0  0  0  0
   -4.4341  -10.1522   19.9087 N   0  0  0  0  0  2  0  0  0  0  0  0
   -5.7019   -6.2987   19.2563 C   0  0  0  0  0  2  0  0  0  0  0  0
   -6.0877   -8.4521   16.0966 C   0  0  0  0  0  3  0  0  0  0  0  0
   -4.4974   -9.9560   15.3679 C   0  0  0  0  0  2  0  0  0  0  0  0
   -6.8248  -13.5489   15.8149 O   0  0  0  0  0  0  0  0  0  0  0  0
   -6.8871   -8.1887   21.7093 C   0  0  0  0  0  2  0  0  0  0  0  0
   -7.3130   -7.7914   20.2968 C   0  0  0  0  0  3  0  0  0  0  0  0
   -6.4213   -8.6045   19.3574 C   0  0  0  0  0  3  0  0  0  0  0  0
   -5.7494   -9.0717   21.5468 N   0  0  0  0  0  0  0  0  0  0  0  0
   -5.5010   -9.2925   20.3057 C   0  0  0  0  0  0  0  0  0  0  0  0
   -6.2710  -11.5519   14.6874 C   0  0  0  0  0  2  0  0  0  0  0  0
   -7.2264  -12.6000   15.1610 C   0  0  0  0  0  0  0  0  0  0  0  0
   -4.1754  -10.3957   18.6039 O   0  0  0  0  0  1  0  0  0  0  0  0
   -4.6569   -8.6062   15.8903 N   0  0  0  0  0  2  0  0  0  0  0  0
   -6.6585   -9.8103   16.4321 C   0  0  0  0  0  2  0  0  0  0  0  0
   -6.3987   -7.3968   17.1572 C   0  0  0  0  0  2  0  0  0  0  0  0
  1 15  1  0
  2 20  1  0
  2  6  1  0
  2 12  1  0
  5 14  1  0
  6  3  1  0
  7 20  1  0
  8 18  1  0
  8  1  1  0
  9 16  2  0
 11  3  1  0
 11 10  1  0
 12 14  1  0
 12 11  1  0
 13 10  1  0
 14 13  2  0
 15 16  1  0
 16  4  1  0
 17  5  1  0
 18  7  1  0
 19  1  1  0
 19  7  1  0
M  RAD  8   1   2   2   2   3   3   4   2   5   2   6   3   7   2   8   3
M  RAD  8  10   3  11   2  12   2  15   3  17   2  18   2  19   3  20   3
M  END
$$$$
/tmp/tmp0jkoftfq
     RDKit          3D

 20 23  0  0  1  0  0  0  0  0999 V2000
   -5.7821  -10.9099   17.9706 C   0  0  0  0  0  0  0  0  0  0  0  0
   -6.2328  -10.9753   19.2266 C   0  0  0  0  0  0  0  0  0  0  0  0
   -7.3872   -7.7241   18.0595 C   0  0  0  0  0  0  0  0  0  0  0  0
   -6.1551   -9.7391   18.5469 N   0  0  0  0  0  0  0  0  0  0  0  0
   -7.9042   -7.2327   19.1860 C   0  0  0  0  0  3  0  0  0  0  0  0
   -7.1027   -8.0022   15.7593 C   0  0  0  0  0  2  0  0  0  0  0  0
   -4.5873   -9.0662   14.3673 C   0  0  0  0  0  1  0  0  0  0  0  0
   -7.9726   -7.4706   16.7963 N   0  0  0  0  0  2  0  0  0  0  0  0
   -6.3121  -12.1760   19.8974 C   0  0  0  0  0  3  0  0  0  0  0  0
   -5.3200  -13.0148   17.6423 C   0  0  0  0  0  3  0  0  0  0  0  0
   -5.8173  -13.2608   19.0304 C   0  0  0  0  0  0  0  0  0  0  0  0
   -6.0058   -8.6872   16.4430 N   0  0  0  0  0  0  0  0  0  0  0  0
   -5.3387  -11.6870   17.0803 C   0  0  0  0  0  0  0  0  0  0  0  0
   -6.1007   -8.4478   17.9246 C   0  0  0  0  0  3  0  0  0  0  0  0
   -9.0865   -8.5976   21.5400 O   0  0  0  0  0  1  0  0  0  0  0  0
   -7.2730   -7.4154   20.5294 C   0  0  0  0  0  2  0  0  0  0  0  0
   -5.8041  -14.5577   19.5246 O   0  0  0  0  0  1  0  0  0  0  0  0
   -5.1283   -9.5935   15.6506 C   0  0  0  0  0  0  0  0  0  0  0  0
   -4.8962  -10.9453   15.8767 C   0  0  0  0  0  3  0  0  0  0  0  0
   -7.7432   -8.7057   21.1791 C   0  0  0  0  0  2  0  0  0  0  0  0
  1  4  1  0
  1  2  2  0
  2  9  1  0
  3  5  2  0
  4  2  1  0
  5 16  1  0
  6  8  1  0
  6 12  1  0
  7 18  1  0
  8  3  1  0
 10 11  1  0
 11 17  1  0
 11  9  2  0
 12 14  1  0
 13 10  2  0
 13  1  1  0
 14  3  1  0
 14  4  1  0
 15 20  1  0
 16 20  1  0
 18 12  1  0
 19 18  2  0
 19 13  1  0
M  RAD  8   5   2   6   3   7   2   8   2   9   2  10   2  14   2  15   2
M  RAD  4  16   3  17   2  19   2  20   3
M  END
$$$$
/tmp/tmpm5w5jx9u
     RDKit          3D

 20 21  0  0  1  0  0  0  0  0999 V2000
   -8.3869  -12.8552   18.6023 C   0  0  0  0  0  2  0  0  0  0  0  0
   -8.8750  -11.4637   23.2845 N   0  0  0  0  0  2  0  0  0  0  0  0
   -3.6697   -5.4601   16.2370 C   0  0  0  0  0  3  0  0  0  0  0  0
   -6.3925  -10.0040   17.0064 C   0  0  0  0  0  3  0  0  0  0  0  0
   -4.7672   -5.9704   17.1478 C   0  0  0  0  0  3  0  0  0  0  0  0
   -7.9723  -13.0650   20.0607 C   0  0  0  0  0  0  0  0  0  0  0  0
   -8.6984  -12.0601   20.9590 C   0  0  0  0  0  2  0  0  0  0  0  0
   -4.8943   -8.2737   14.9772 C   0  0  0  0  0  2  0  0  0  0  0  0
   -8.3503  -12.2314   22.4042 C   0  0  0  0  0  3  0  0  0  0  0  0
   -6.5311  -12.9103   20.1949 N   0  0  0  0  0  1  0  0  0  0  0  0
   -4.7417   -6.8688   14.3861 C   0  0  0  0  0  2  0  0  0  0  0  0
   -4.8948   -9.7322   17.0424 C   0  0  0  0  0  2  0  0  0  0  0  0
   -6.6745  -11.1470   16.0543 C   0  0  0  0  0  2  0  0  0  0  0  0
   -5.1428   -7.2521   17.2761 C   0  0  0  0  0  3  0  0  0  0  0  0
   -2.4087   -5.4294   16.9553 N   0  0  0  0  0  1  0  0  0  0  0  0
   -4.5353   -8.3637   16.4684 C   0  0  0  0  0  3  0  0  0  0  0  0
   -8.3411  -14.4170   20.4464 N   0  0  0  0  0  1  0  0  0  0  0  0
   -3.4768   -6.1878   14.8962 C   0  0  0  0  0  2  0  0  0  0  0  0
   -8.0734  -11.4596   18.0693 C   0  0  0  0  0  2  0  0  0  0  0  0
   -6.6510  -11.3944   17.5475 C   0  0  0  0  0  3  0  0  0  0  0  0
  1  6  1  0
  2  9  2  0
  3  5  1  0
  3 15  1  0
  4 12  1  0
  4 13  1  0
  4 20  1  0
  5 14  2  0
  6 17  1  0
  7  6  1  0
  8 16  1  0
  9  7  1  0
 10  6  1  0
 11 18  1  0
 11  8  1  0
 13 20  1  0
 14 16  1  0
 16 12  1  0
 18  3  1  0
 19  1  1  0
 20 19  1  0
M  RAD  8   1   3   2   2   3   2   4   2   5   2   7   3   8   3   9   2
M  RAD  8  10   3  11   3  12   3  13   3  14   2  15   3  16   2  17   3
M  RAD  3  18   3  19   3  20   2
M  END
$$$$

     RDKit          3D

 11 13  0  0  0  0  0  0  0  0999 V2000
   -6.9832  -11.7333   20.4200 C   0  0  0  0  0  3  0  0  0  0  0  0
   -6.6259   -9.4544   19.7405 C   0  0  0  0  0  0  0  0  0  0  0  0
   -6.3748   -7.2123   19.2614 C   0  0  0  0  0  0  0  0  0  0  0  0
   -7.7332  -10.0031   21.8335 N   0  0  0  0  0  0  0  0  0  0  0  0
   -7.5865  -11.3008   21.5590 N   0  0  0  0  0  0  0  0  0  0  0  0
   -7.2864   -9.0406   20.9875 C   0  0  0  0  0  0  0  0  0  0  0  0
   -6.9884   -6.8150   20.4199 C   0  0  0  0  0  0  0  0  0  0  0  0
   -6.5037   -5.9019   19.5024 N   0  0  0  0  0  0  0  0  0  0  0  0
   -6.4936  -10.8160   19.4933 C   0  0  0  0  0  3  0  0  0  0  0  0
   -6.1073   -8.4935   18.7587 N   0  0  0  0  0  2  0  0  0  0  0  0
   -7.4871   -7.5750   21.3638 C   0  0  0  0  0  3  0  0  0  0  0  0
  1  5  2  0
  2  6  1  0
  3  8  2  0
  3  7  1  0
  5  4  1  0
  6 11  1  0
  6  4  2  0
  7 11  2  0
  8  7  1  0
  9  2  2  0
  9  1  1  0
 10  3  1  0
 10  2  1  0
M  RAD  4   1   2   9   2  10   2  11   2
M  END
$$$$
/tmp/tmp544xs4wh
     RDKit          3D

 20 21  0  0  1  0  0  0  0  0999 V2000
   -7.4169   -7.4743   21.2443 C   0  0  0  0  0  0  0  0  0  0  0  0
   -5.9629   -8.3969   15.2292 C   0  0  0  0  0  0  0  0  0  0  0  0
   -3.7618   -7.5768   16.0123 C   0  0  0  0  0  1  0  0  0  0  0  0
   -7.4298   -6.5051   19.0206 C   0  0  0  0  0  2  0  0  0  0  0  0
   -5.8074  -11.0285   19.2205 N   0  0  0  0  0  2  0  0  0  0  0  0
   -7.4002   -8.6579   21.7935 C   0  0  0  0  0  3  0  0  0  0  0  0
   -5.7551   -7.1805   17.2885 O   0  0  0  0  0  0  0  0  0  0  0  0
   -5.4673  -12.1741   14.6995 C   0  0  0  0  0  2  0  0  0  0  0  0
   -6.4584   -7.4114   14.5745 N   0  0  0  0  0  2  0  0  0  0  0  0
   -6.8888   -9.7973   21.0716 N   0  0  0  0  0  2  0  0  0  0  0  0
   -5.4873  -10.8815   15.4966 C   0  0  0  0  0  3  0  0  0  0  0  0
   -5.1574  -11.1589   17.9248 C   0  0  0  0  0  2  0  0  0  0  0  0
   -6.3898   -8.7147   18.9945 C   0  0  0  0  0  0  0  0  0  0  0  0
   -4.4475  -12.0888   13.5795 C   0  0  0  0  0  1  0  0  0  0  0  0
   -5.1092   -8.1253   16.4413 C   0  0  0  0  0  3  0  0  0  0  0  0
   -6.1908  -11.1209   16.8171 C   0  0  0  0  0  2  0  0  0  0  0  0
   -6.4861   -7.5291   18.4300 C   0  0  0  0  0  0  0  0  0  0  0  0
   -6.3705   -9.8107   19.7233 C   0  0  0  0  0  0  0  0  0  0  0  0
   -7.3546   -6.3886   20.5230 C   0  0  0  0  0  3  0  0  0  0  0  0
   -6.2143   -9.7907   14.7165 C   0  0  0  0  0  2  0  0  0  0  0  0
  1  6  2  0
  2 15  1  0
  4 19  1  0
  5 18  1  0
  7 17  1  0
  9  2  2  0
 10  6  1  0
 11  8  1  0
 11 16  1  0
 12  5  1  0
 13 18  2  0
 14  8  1  0
 15  3  1  0
 15  7  1  0
 16 12  1  0
 17 13  2  0
 17  4  1  0
 18 10  1  0
 19  1  2  0
 20  2  1  0
 20 11  1  0
M  RAD  8   3   2   4   3   5   2   6   2   8   3   9   2  10   2  11   2
M  RAD  6  12   3  14   2  15   2  16   3  19   2  20   3
M  END
$$$$
/tmp/tmp1mehr4fz
     RDKit          3D

 20 22  0  0  0  0  0  0  0  0999 V2000
   -4.9822   -9.9075   15.0895 C   0  0  0  0  0  2  0  0  0  0  0  0
   -5.4858  -10.6261   18.2949 C   0  0  0  0  0  0  0  0  0  0  0  0
   -5.4354   -8.7200   19.8448 C   0  0  0  0  0  0  0  0  0  0  0  0
   -8.4738   -6.8910   17.2613 O   0  0  0  0  0  1  0  0  0  0  0  0
   -6.1242  -12.0555   14.9224 N   0  0  0  0  0  0  0  0  0  0  0  0
   -6.7680  -13.0548   15.7634 C   0  0  0  0  0  2  0  0  0  0  0  0
   -5.8585   -9.2777   18.6091 C   0  0  0  0  0  0  0  0  0  0  0  0
   -4.6726   -9.4892   20.7344 C   0  0  0  0  0  3  0  0  0  0  0  0
   -5.6472  -11.1223   15.6711 C   0  0  0  0  0  0  0  0  0  0  0  0
   -6.3121   -8.4673   16.4092 C   0  0  0  0  0  0  0  0  0  0  0  0
   -4.7380  -11.3612   19.2246 C   0  0  0  0  0  3  0  0  0  0  0  0
   -6.6447   -8.4423   17.6634 C   0  0  0  0  0  0  0  0  0  0  0  0
   -5.7371   -7.2896   20.2035 C   0  0  0  0  0  3  0  0  0  0  0  0
   -6.5094   -7.1929   21.5072 C   0  0  0  0  0  1  0  0  0  0  0  0
   -7.7474   -7.6512   18.1150 N   0  0  0  0  0  2  0  0  0  0  0  0
   -6.5759  -12.5330   17.1525 C   0  0  0  0  0  3  0  0  0  0  0  0
   -4.3291  -10.8002   20.4289 C   0  0  0  0  0  3  0  0  0  0  0  0
   -5.9420  -11.3714   17.0868 C   0  0  0  0  0  0  0  0  0  0  0  0
   -5.8719   -8.7145   15.2157 C   0  0  0  0  0  3  0  0  0  0  0  0
   -4.4679   -6.4604   20.2793 C   0  0  0  0  0  1  0  0  0  0  0  0
  1  9  1  0
  1 19  1  0
  2  7  2  0
  2 11  1  0
  3  8  2  0
  3 13  1  0
  5  9  2  0
  5  6  1  0
  6 16  1  0
  7  3  1  0
  9 18  1  0
 10 12  2  0
 11 17  2  0
 12 15  1  0
 12  7  1  0
 13 20  1  0
 13 14  1  0
 15  4  1  0
 17  8  1  0
 18 16  2  0
 18  2  1  0
 19 10  2  0
M  RAD  8   1   3   4   2   6   3   8   2  11   2  13   2  14   2  15   2
M  RAD  4  16   2  17   2  19   2  20   2
M  END
$$$$

     RDKit          3D

 15 17  0  0  0  0  0  0  0  0999 V2000
   -7.0669   -9.0503   20.3155 N   0  0  0  0  0  0  0  0  0  0  0  0
   -6.2985   -7.9854   16.6463 C   0  0  0  0  0  0  0  0  0  0  0  0
   -7.5893   -7.8067   20.8825 C   0  0  0  0  0  2  0  0  0  0  0  0
   -6.8541  -11.5259   20.5587 N   0  0  0  0  0  1  0  0  0  0  0  0
   -5.7342   -7.3735   22.4995 C   0  0  0  0  0  1  0  0  0  0  0  0
   -6.4549   -6.8665   21.2655 C   0  0  0  0  0  2  0  0  0  0  0  0
   -6.9589   -7.9386   18.0227 C   0  0  0  0  0  3  0  0  0  0  0  0
   -7.7223   -8.4962   16.8351 C   0  0  0  0  0  3  0  0  0  0  0  0
   -5.1384  -10.0282   17.2876 C   0  0  0  0  0  3  0  0  0  0  0  0
   -7.3228   -7.8014   15.5498 C   0  0  0  0  0  2  0  0  0  0  0  0
   -5.4311   -9.1367   16.3931 N   0  0  0  0  0  0  0  0  0  0  0  0
   -7.4273  -10.1706   22.3428 O   0  0  0  0  0  0  0  0  0  0  0  0
   -6.5473   -9.0473   18.9681 C   0  0  0  0  0  0  0  0  0  0  0  0
   -7.1168  -10.2441   21.1236 C   0  0  0  0  0  0  0  0  0  0  0  0
   -5.6991   -9.9626   18.5995 N   0  0  0  0  0  0  0  0  0  0  0  0
  1 14  1  0
  1  3  1  0
  2 10  1  0
  2 11  1  0
  2  7  1  0
  4 14  1  0
  5  6  1  0
  6  3  1  0
  7 13  1  0
  8 10  1  0
  8  2  1  0
  8  7  1  0
  9 15  1  0
 11  9  2  0
 13  1  1  0
 14 12  2  0
 15 13  2  0
M  RAD  8   3   3   4   3   5   2   6   3   7   2   8   2   9   2  10   3
M  END
$$$$
/tmp/tmpg9pnvx7x
     RDKit          3D

 20 21  0  0  0  0  0  0  0  0999 V2000
   -6.6614   -9.5080   16.9169 C   0  0  0  0  0  0  0  0  0  0  0  0
   -8.4807  -10.7333   19.9771 C   0  0  0  0  0  3  0  0  0  0  0  0
   -4.2256   -9.3286   17.0184 C   0  0  0  0  0  3  0  0  0  0  0  0
   -6.4415   -9.7230   20.0721 C   0  0  0  0  0  3  0  0  0  0  0  0
   -6.0254   -9.7077   22.5240 C   0  0  0  0  0  2  0  0  0  0  0  0
   -2.6011   -8.2104   13.2090 C   0  0  0  0  0  3  0  0  0  0  0  0
   -5.5114   -8.7153   17.4457 C   0  0  0  0  0  2  0  0  0  0  0  0
   -6.6849   -8.7301   13.3048 N   0  0  0  0  0  1  0  0  0  0  0  0
   -3.9865   -8.5494   13.3764 N   0  0  0  0  0  2  0  0  0  0  0  0
   -7.6106  -10.1224   17.7979 N   0  0  0  0  0  2  0  0  0  0  0  0
   -6.8785   -9.5967   15.6041 C   0  0  0  0  0  3  0  0  0  0  0  0
   -7.5357  -10.1928   19.2268 C   0  0  0  0  0  0  0  0  0  0  0  0
   -1.7536   -8.0842   14.2220 C   0  0  0  0  0  2  0  0  0  0  0  0
   -6.0206   -9.0583   14.5232 C   0  0  0  0  0  0  0  0  0  0  0  0
   -6.5977   -8.4983   23.2462 C   0  0  0  0  0  2  0  0  0  0  0  0
   -4.6702   -8.9656   14.5739 C   0  0  0  0  0  0  0  0  0  0  0  0
   -6.8222  -10.0257   21.3039 C   0  0  0  0  0  0  0  0  0  0  0  0
   -6.2272   -7.2190   22.5192 C   0  0  0  0  0  1  0  0  0  0  0  0
   -8.0970  -10.6590   21.3448 N   0  0  0  0  0  2  0  0  0  0  0  0
   -3.8642   -9.4102   15.7396 C   0  0  0  0  0  3  0  0  0  0  0  0
  1  7  1  0
  1 10  1  0
  2 19  1  0
  3  7  1  0
  4 17  2  0
  6  9  1  0
  6 13  2  0
  8 14  1  0
  9 16  1  0
 10 12  1  0
 11  1  2  0
 12  4  1  0
 12  2  2  0
 14 11  1  0
 15  5  1  0
 16 14  2  0
 16 20  1  0
 17 19  1  0
 17  5  1  0
 18 15  1  0
 20  3  2  0
M  RAD  8   2   2   3   2   4   2   5   3   6   2   7   3   8   3   9   2
M  RAD  7  10   2  11   2  13   3  15   3  18   2  19   2  20   2
M  END
$$$$
/tmp/tmptqze5j5p
     RDKit          3D

 20 24  0  0  1  0  0  0  0  0999 V2000
   -4.9943   -9.3508   20.5714 O   0  0  0  0  0  0  0  0  0  0  0  0
   -7.2996   -9.8872   20.3817 C   0  0  0  0  0  2  0  0  0  0  0  0
   -5.9880  -12.3388   19.1259 C   0  0  0  0  0  0  0  0  0  0  0  0
   -6.6840   -7.8014   18.0498 C   0  0  0  0  0  3  0  0  0  0  0  0
   -7.0120  -10.3944   14.9129 C   0  0  1  0  0  0  0  0  0  0  0  0
   -6.3505  -11.3689   18.1599 N   0  0  0  0  0  0  0  0  0  0  0  0
   -6.2992   -9.8592   13.6947 C   0  0  0  0  0  2  0  0  0  0  0  0
   -7.7583   -9.2923   15.6427 C   0  0  0  0  0  2  0  0  0  0  0  0
   -6.4492   -8.5843   15.8154 C   0  0  0  0  0  3  0  0  0  0  0  0
   -6.9452  -11.1439   21.0402 N   0  0  0  0  0  2  0  0  0  0  0  0
   -5.8699  -11.7862   17.0426 C   0  0  0  0  0  0  0  0  0  0  0  0
   -6.0418   -8.5215   17.2015 N   0  0  0  0  0  0  0  0  0  0  0  0
   -6.2649  -12.2527   20.4287 C   0  0  0  0  0  3  0  0  0  0  0  0
   -5.1749  -13.0278   17.1056 N   0  0  0  0  0  2  0  0  0  0  0  0
   -7.1466   -6.7576   20.2400 C   0  0  0  0  0  1  0  0  0  0  0  0
   -6.0368  -11.0504   15.8371 N   0  0  0  0  0  0  0  0  0  0  0  0
   -5.7869   -9.7592   15.1077 C   0  0  1  0  0  0  0  0  0  0  0  0
   -5.2357  -13.4563   18.4967 C   0  0  0  0  0  2  0  0  0  0  0  0
   -6.0938   -9.0067   20.1651 C   0  0  0  0  0  0  0  0  0  0  0  0
   -6.2216   -7.6813   19.4707 C   0  0  0  0  0  3  0  0  0  0  0  0
  1 19  2  0
  3 13  2  0
  4 20  1  0
  5  7  1  6
  5  8  1  0
  5 17  1  0
  5 16  1  0
  6  3  1  0
  9  8  1  0
  9 12  1  0
 10  2  1  0
 11 14  1  0
 11  6  2  0
 12  4  2  0
 13 10  1  0
 14 18  1  0
 16 11  1  0
 17  7  1  6
 17 16  1  0
 17  9  1  0
 18  3  1  0
 19  2  1  0
 20 19  1  0
 20 15  1  0
M  RAD  8   2   3   4   2   7   3   8   3   9   2  10   2  13   2  14   2
M  RAD  3  15   2  18   3  20   2
M  END
$$$$

     RDKit          3D

 14 15  0  0  0  0  0  0  0  0999 V2000
   -6.6522   -9.8243   20.7116 C   0  0  0  0  0  0  0  0  0  0  0  0
   -6.0308   -8.4560   20.6569 C   0  0  0  0  0  3  0  0  0  0  0  0
   -6.3955   -9.9027   23.1631 N   0  0  0  0  0  1  0  0  0  0  0  0
   -7.4605  -11.0069   18.5280 C   0  0  0  0  0  0  0  0  0  0  0  0
   -4.7752   -8.4343   19.7970 C   0  0  0  0  0  2  0  0  0  0  0  0
   -7.0585  -10.4202   19.6201 C   0  0  0  0  0  0  0  0  0  0  0  0
   -6.1344   -6.5176   19.2269 C   0  0  0  0  0  2  0  0  0  0  0  0
   -6.8108  -10.4929   21.9625 N   0  0  0  0  0  2  0  0  0  0  0  0
   -5.0057   -7.3890   18.7232 C   0  0  0  0  0  2  0  0  0  0  0  0
   -7.3584  -10.4577   17.1907 C   0  0  0  0  0  3  0  0  0  0  0  0
   -8.0812  -12.3142   18.4509 C   0  0  0  0  0  3  0  0  0  0  0  0
   -7.8790  -11.3692   16.3797 C   0  0  0  0  0  3  0  0  0  0  0  0
   -6.9870   -7.4257   20.0821 C   0  0  0  0  0  2  0  0  0  0  0  0
   -8.3296  -12.5263   17.1652 C   0  0  0  0  0  3  0  0  0  0  0  0
  1  8  1  0
  2  1  1  0
  2 13  1  0
  4  6  2  0
  5  2  1  0
  6  1  2  0
  7 13  1  0
  8  3  1  0
  9  5  1  0
  9  7  1  0
 10  4  1  0
 11  4  1  0
 12 14  1  0
 12 10  2  0
 14 11  2  0
M  RAD  8   2   2   3   3   5   3   7   3   8   2   9   3  10   2  11   2
M  RAD  3  12   2  13   3  14   2
M  END
$$$$
/tmp/tmpnrfn3irl
     RDKit          3D

 20 21  0  0  1  0  0  0  0  0999 V2000
   -6.2882   -9.7794   14.8126 N   0  0  0  0  0  0  0  0  0  0  0  0
   -7.0197  -11.9938   19.4698 C   0  0  0  0  0  1  0  0  0  0  0  0
   -5.6464  -10.7951   15.2887 C   0  0  0  0  0  0  0  0  0  0  0  0
   -4.5315  -10.6824   16.3156 C   0  0  0  0  0  3  0  0  0  0  0  0
   -5.8120   -9.6424   18.0890 O   0  0  0  0  0  0  0  0  0  0  0  0
   -3.5548   -9.5008   16.1793 C   0  0  0  0  0  2  0  0  0  0  0  0
   -6.0108   -8.4094   15.1779 C   0  0  0  0  0  2  0  0  0  0  0  0
   -5.0617  -10.7988   17.7375 C   0  0  0  0  0  2  0  0  0  0  0  0
   -3.5298   -8.9001   14.7783 C   0  0  0  0  0  2  0  0  0  0  0  0
   -6.1754   -6.9731   19.1431 C   0  0  0  0  0  0  0  0  0  0  0  0
   -6.4537   -5.6805   19.6755 N   0  0  0  0  0  1  0  0  0  0  0  0
   -7.7970  -10.3910   21.1679 C   0  0  0  0  0  3  0  0  0  0  0  0
   -7.0891  -10.5959   19.9823 C   0  0  0  0  0  0  0  0  0  0  0  0
   -6.5286   -9.4912   19.2873 C   0  0  0  0  0  0  0  0  0  0  0  0
   -7.9661   -9.1082   21.6791 C   0  0  0  0  0  3  0  0  0  0  0  0
   -6.0117  -12.1566   14.8067 C   0  0  0  0  0  1  0  0  0  0  0  0
   -5.4574   -7.0609   18.1125 O   0  0  0  0  0  0  0  0  0  0  0  0
   -6.7202   -8.1844   19.8054 C   0  0  0  0  0  0  0  0  0  0  0  0
   -7.4344   -8.0156   21.0000 C   0  0  0  0  0  3  0  0  0  0  0  0
   -4.6924   -7.9273   14.5657 C   0  0  0  0  0  2  0  0  0  0  0  0
  1  7  1  0
  1  3  2  0
  2 13  1  0
  3 16  1  0
  3  4  1  0
  4  8  1  0
  5 14  1  0
  6  4  1  0
  8  5  1  0
  9 20  1  0
  9  6  1  0
 10 11  1  0
 10 18  1  0
 12 15  2  0
 13 12  1  0
 14 13  2  0
 14 18  1  0
 17 10  2  0
 18 19  2  0
 19 15  1  0
 20  7  1  0
M  RAD  8   2   2   4   2   6   3   7   3   8   3   9   3  11   3  12   2
M  RAD  4  15   2  16   2  19   2  20   3
M  END
$$$$
/tmp/tmpa04nsapp
     RDKit          3D

 20 22  0  0  1  0  0  0  0  0999 V2000
   -4.7330  -10.9271   16.2845 C   0  0  0  0  0  3  0  0  0  0  0  0
   -4.4691   -9.4285   16.0979 C   0  0  0  0  0  3  0  0  0  0  0  0
   -6.1881  -11.3423   16.1101 C   0  0  0  0  0  2  0  0  0  0  0  0
   -8.7593   -7.7223   21.8024 N   0  0  0  0  0  0  0  0  0  0  0  0
   -7.8232   -6.8497   21.1554 C   0  0  0  0  0  0  0  0  0  0  0  0
   -5.6817   -8.6708   15.8089 N   0  0  0  0  0  2  0  0  0  0  0  0
   -8.8850   -8.9607   21.4194 C   0  0  0  0  0  3  0  0  0  0  0  0
   -2.7107  -10.6700   14.8880 C   0  0  0  0  0  2  0  0  0  0  0  0
   -5.7493   -7.6200   16.7357 N   0  0  0  0  0  2  0  0  0  0  0  0
   -6.7210   -7.4583   20.3421 C   0  0  0  0  0  3  0  0  0  0  0  0
   -7.8579   -5.6101   21.3729 O   0  0  0  0  0  0  0  0  0  0  0  0
   -4.9721   -6.0593   19.2681 C   0  0  0  0  0  1  0  0  0  0  0  0
   -8.1385   -9.4579   20.2959 N   0  0  0  0  0  0  0  0  0  0  0  0
   -2.4470  -11.7696   13.8802 C   0  0  0  0  0  1  0  0  0  0  0  0
   -6.7293   -8.9488   18.4559 N   0  0  0  0  0  0  0  0  0  0  0  0
   -4.1990  -10.4006   14.9676 C   0  0  0  0  0  3  0  0  0  0  0  0
   -6.3040  -12.8471   16.2337 C   0  0  0  0  0  1  0  0  0  0  0  0
   -7.1631   -8.7658   19.7879 C   0  0  0  0  0  0  0  0  0  0  0  0
   -6.2422   -7.8170   18.0638 C   0  0  0  0  0  0  0  0  0  0  0  0
   -6.3305   -6.7064   19.0737 C   0  0  0  0  0  3  0  0  0  0  0  0
  1  3  1  0
  2  6  1  0
  2  1  1  0
  3 17  1  0
  5  4  1  0
  5 11  2  0
  6  9  1  0
  7  4  2  0
  8 14  1  0
  9 19  1  0
 10 18  1  0
 10  5  1  0
 13  7  1  0
 15 18  1  0
 16  8  1  0
 16  2  1  0
 16  1  1  0
 18 13  2  0
 19 15  2  0
 19 20  1  0
 20 12  1  0
 20 10  1  0
M  RAD  8   1   2   2   2   3   3   6   2   7   2   8   3   9   2  10   2
M  RAD  5  12   2  14   2  16   2  17   2  20   2
M  END
$$$$
/tmp/tmpzccxv5kp
     RDKit          3D

 20 23  0  0  1  0  0  0  0  0999 V2000
   -5.9749  -10.5148   19.4172 N   0  0  0  0  0  0  0  0  0  0  0  0
   -6.4181   -7.3911   20.0319 C   0  0  0  0  0  2  0  0  0  0  0  0
   -5.7522  -11.4627   12.6411 O   0  0  0  0  0  1  0  0  0  0  0  0
   -4.0762  -12.0983   14.0694 O   0  0  0  0  0  0  0  0  0  0  0  0
   -4.8533  -11.1952   13.6652 C   0  0  0  0  0  0  0  0  0  0  0  0
   -6.3349   -7.1128   17.5840 C   0  0  0  0  0  3  0  0  0  0  0  0
   -6.3978   -7.4911   16.3344 C   0  0  0  0  0  0  0  0  0  0  0  0
   -5.4881   -9.3384   18.6826 C   0  0  0  0  0  3  0  0  0  0  0  0
   -6.5044   -8.1327   18.6925 C   0  0  0  0  0  3  0  0  0  0  0  0
   -7.2112   -8.0277   21.0842 N   0  0  0  0  0  0  0  0  0  0  0  0
   -4.8103   -9.8418   14.2876 C   0  0  0  0  0  2  0  0  0  0  0  0
   -6.1214  -10.2364   16.5106 C   0  0  0  0  0  3  0  0  0  0  0  0
   -6.0775   -9.5812   15.1019 C   0  0  0  0  0  3  0  0  0  0  0  0
   -7.2766  -11.3134   21.4233 N   0  0  0  0  0  2  0  0  0  0  0  0
   -7.8333  -10.2345   22.1346 N   0  0  0  0  0  2  0  0  0  0  0  0
   -5.0151  -11.1336   16.8905 N   0  0  0  0  0  2  0  0  0  0  0  0
   -4.9770   -9.7121   17.2773 C   0  0  0  0  0  3  0  0  0  0  0  0
   -7.2255   -9.3112   21.2395 C   0  0  0  0  0  0  0  0  0  0  0  0
   -6.6708  -10.4140   20.5027 C   0  0  0  0  0  0  0  0  0  0  0  0
   -6.3754   -8.0929   15.1694 C   0  0  0  0  0  3  0  0  0  0  0  0
  1 19  2  0
  2 10  1  0
  3  5  1  0
  4  5  2  0
  5 11  1  0
  7  6  2  0
  8  9  1  0
  8  1  1  0
  9  6  1  0
  9  2  1  0
 12 16  1  0
 12 17  1  0
 13 11  1  0
 13 20  1  0
 13 12  1  0
 14 15  1  0
 17 16  1  0
 17  8  1  0
 18 10  2  0
 18 15  1  0
 19 14  1  0
 19 18  1  0
 20  7  2  0
M  RAD  8   2   3   3   2   6   2   8   2   9   2  11   3  12   2  13   2
M  RAD  5  14   2  15   2  16   2  17   2  20   2
M  END
$$$$
/tmp/tmphjnlm33o
     RDKit          3D

 20 23  0  0  1  0  0  0  0  0999 V2000
   -4.9906   -7.2268   19.3920 C   0  0  0  0  0  0  0  0  0  0  0  0
   -8.4445  -10.6243   18.0296 N   0  0  0  0  0  0  0  0  0  0  0  0
   -6.4594   -9.1546   20.1302 C   0  0  0  0  0  3  0  0  0  0  0  0
   -9.3421   -9.5838   17.9479 O   0  0  0  0  0  1  0  0  0  0  0  0
   -5.3282   -8.7011   19.2328 C   0  0  2  0  0  0  0  0  0  0  0  0
   -7.7048  -13.2358   17.1237 C   0  0  0  0  0  3  0  0  0  0  0  0
   -5.6638  -13.8073   18.3586 N   0  0  0  0  0  0  0  0  0  0  0  0
   -6.9015   -6.8183   20.8547 C   0  0  0  0  0  3  0  0  0  0  0  0
   -7.9579  -14.7376   17.0162 C   0  0  0  0  0  2  0  0  0  0  0  0
   -7.1992  -10.4315   18.3402 C   0  0  0  0  0  0  0  0  0  0  0  0
   -3.8251   -6.7259   18.7457 N   0  0  0  0  0  1  0  0  0  0  0  0
   -7.2555   -8.0975   20.8490 C   0  0  0  0  0  3  0  0  0  0  0  0
   -7.4693  -12.7109   15.8518 O   0  0  0  0  0  1  0  0  0  0  0  0
   -6.5415  -12.9009   18.0337 C   0  0  0  0  0  0  0  0  0  0  0  0
   -6.6428  -15.4724   16.8220 C   0  0  0  0  0  2  0  0  0  0  0  0
   -6.7137   -9.0372   18.6456 C   0  0  2  0  0  0  0  0  0  0  0  0
   -5.7855  -15.2351   18.0558 C   0  0  0  0  0  2  0  0  0  0  0  0
   -6.2932  -11.5467   18.4358 N   0  0  0  0  0  2  0  0  0  0  0  0
   -5.7120   -6.3803   20.1293 C   0  0  0  0  0  3  0  0  0  0  0  0
   -5.5192   -8.9160   17.8063 N   0  0  0  0  0  2  0  0  0  0  0  0
  1  5  1  0
  1 19  2  0
  2  4  1  0
  3 12  1  0
  5 20  1  6
  5 16  1  0
  5  3  1  0
  6 13  1  0
  6 14  1  0
  8 12  2  0
  9 15  1  0
  9  6  1  0
 10  2  2  0
 11  1  1  0
 14  7  2  0
 14 18  1  0
 15 17  1  0
 16 10  1  6
 16  3  1  0
 17  7  1  0
 18 10  1  0
 19  8  1  0
 20 16  1  0
M  RAD  8   3   2   4   2   6   2   8   2   9   3  11   3  12   2  13   2
M  RAD  5  15   3  17   3  18   2  19   2  20   2
M  END
$$$$

     RDKit          3D

 17 19  0  0  0  0  0  0  0  0999 V2000
   -6.1528   -5.6816   21.1658 C   0  0  0  0  0  3  0  0  0  0  0  0
   -4.9780  -10.0343   16.1963 C   0  0  0  0  0  2  0  0  0  0  0  0
   -7.4543  -12.9959   19.1109 C   0  0  0  0  0  3  0  0  0  0  0  0
   -7.1860   -7.7084   20.8849 C   0  0  0  0  0  0  0  0  0  0  0  0
   -4.7715   -9.7583   17.6662 C   0  0  0  0  0  2  0  0  0  0  0  0
   -8.1145   -9.9355   20.0959 C   0  0  0  0  0  2  0  0  0  0  0  0
   -7.9390   -8.9040   21.1083 N   0  0  0  0  0  2  0  0  0  0  0  0
   -6.6517  -11.3671   17.4893 C   0  0  0  0  0  0  0  0  0  0  0  0
   -6.9721   -6.6708   21.9243 C   0  0  0  0  0  2  0  0  0  0  0  0
   -7.3453  -13.5856   16.7687 C   0  0  0  0  0  3  0  0  0  0  0  0
   -6.6097   -7.3877   19.7381 C   0  0  0  0  0  3  0  0  0  0  0  0
   -6.9678  -11.7154   18.8225 C   0  0  0  0  0  0  0  0  0  0  0  0
   -5.9544   -6.1017   19.9233 C   0  0  0  0  0  3  0  0  0  0  0  0
   -6.8630  -12.3095   16.4699 C   0  0  0  0  0  3  0  0  0  0  0  0
   -7.6375  -13.9298   18.0892 C   0  0  0  0  0  3  0  0  0  0  0  0
   -6.1770   -9.9830   17.1317 C   0  0  0  0  0  3  0  0  0  0  0  0
   -6.8324  -10.7362   19.9428 C   0  0  0  0  0  2  0  0  0  0  0  0
  1  9  1  0
  2  5  1  0
  2 16  1  0
  3 12  2  0
  4  9  1  0
  4  7  1  0
  5 16  1  0
  6  7  1  0
  8 12  1  0
 10 15  2  0
 11  4  2  0
 12 17  1  0
 13 11  1  0
 13  1  2  0
 14 10  1  0
 14  8  2  0
 15  3  1  0
 16  8  1  0
 17  6  1  0
M  RAD  8   1   2   2   3   3   2   5   3   6   3   7   2   9   3  10   2
M  RAD  6  11   2  13   2  14   2  15   2  16   2  17   3
M  END
$$$$
/tmp/tmpui0xv0c6
     RDKit          3D

 20 22  0  0  1  0  0  0  0  0999 V2000
   -6.5248   -9.3210   18.1548 N   0  0  0  0  0  0  0  0  0  0  0  0
   -8.7827   -9.4380   18.6667 N   0  0  0  0  0  2  0  0  0  0  0  0
   -7.8772  -11.4228   16.1282 C   0  0  0  0  0  2  0  0  0  0  0  0
   -7.7245   -9.5368   17.6976 C   0  0  0  0  0  0  0  0  0  0  0  0
   -7.5909   -8.5745   22.1167 C   0  0  0  0  0  3  0  0  0  0  0  0
   -5.7539   -8.7391   20.5054 C   0  0  0  0  0  0  0  0  0  0  0  0
   -3.9407   -7.3989   19.3866 C   0  0  0  0  0  2  0  0  0  0  0  0
   -3.7518   -9.9254   19.6036 C   0  0  0  0  0  3  0  0  0  0  0  0
   -6.8156  -11.4785   13.8507 C   0  0  0  0  0  2  0  0  0  0  0  0
   -7.9721   -9.9150   16.2807 C   0  0  0  0  0  2  0  0  0  0  0  0
   -4.2851   -8.6491   20.2133 C   0  0  0  0  0  3  0  0  0  0  0  0
   -5.6839  -12.4379   14.1677 C   0  0  0  0  0  1  0  0  0  0  0  0
   -2.9198   -8.6487   17.6603 C   0  0  0  0  0  2  0  0  0  0  0  0
   -3.9843   -7.6911   17.9545 N   0  0  0  0  0  2  0  0  0  0  0  0
   -6.7165   -9.0332   19.5295 C   0  0  0  0  0  0  0  0  0  0  0  0
   -8.5276   -8.8814   21.1137 C   0  0  0  0  0  3  0  0  0  0  0  0
   -8.0436   -9.1046   19.8278 C   0  0  0  0  0  0  0  0  0  0  0  0
   -8.0503  -11.8231   14.6707 C   0  0  0  0  0  2  0  0  0  0  0  0
   -3.1459   -9.9334   18.4092 C   0  0  0  0  0  3  0  0  0  0  0  0
   -6.2139   -8.5035   21.8143 C   0  0  0  0  0  3  0  0  0  0  0  0
  1 15  1  0
  1  4  2  0
  3 10  1  0
  4  2  1  0
  5 16  1  0
  6 20  1  0
  6 15  2  0
  7 11  1  0
  8 11  1  0
  9 18  1  0
 10  4  1  0
 11  6  1  0
 12  9  1  0
 13 19  1  0
 14 13  1  0
 14  7  1  0
 15 17  1  0
 17 16  2  0
 17  2  1  0
 18  3  1  0
 19  8  2  0
 20  5  2  0
M  RAD  8   2   2   3   3   5   2   7   3   8   2   9   3  10   3  11   2
M  RAD  7  12   2  13   3  14   2  16   2  18   3  19   2  20   2
M  END
$$$$

     RDKit          3D

 13 15  0  0  0  0  0  0  0  0999 V2000
   -7.6782   -8.7495   20.9205 C   0  0  0  0  0  0  0  0  0  0  0  0
   -5.0251  -10.0212   17.8386 C   0  0  0  0  0  3  0  0  0  0  0  0
   -7.1563   -9.2430   19.5982 C   0  0  0  0  0  3  0  0  0  0  0  0
   -6.2829   -8.2323   18.8990 C   0  0  0  0  0  0  0  0  0  0  0  0
   -7.7107  -11.0267   21.7380 N   0  0  0  0  0  0  0  0  0  0  0  0
   -7.0067  -11.5027   20.7492 C   0  0  0  0  0  3  0  0  0  0  0  0
   -6.5111  -10.5974   19.7039 C   0  0  0  0  0  0  0  0  0  0  0  0
   -5.3431   -8.7199   17.8776 C   0  0  0  0  0  3  0  0  0  0  0  0
   -6.4187   -6.9251   19.1522 C   0  0  0  0  0  3  0  0  0  0  0  0
   -7.3107   -6.4480   20.2367 C   0  0  0  0  0  3  0  0  0  0  0  0
   -7.8933   -7.3043   21.0869 C   0  0  0  0  0  3  0  0  0  0  0  0
   -5.5709  -10.9781   18.8313 C   0  0  0  0  0  3  0  0  0  0  0  0
   -7.9991   -9.6208   21.8839 C   0  0  0  0  0  3  0  0  0  0  0  0
  1 13  2  0
  1 11  1  0
  2  8  2  0
  2 12  1  0
  3  4  1  0
  3  1  1  0
  4  9  2  0
  5 13  1  0
  6  5  2  0
  7  3  1  0
  7  6  1  0
  8  4  1  0
  9 10  1  0
 10 11  2  0
 12  7  2  0
M  RAD  8   2   2   3   2   6   2   8   2   9   2  10   2  11   2  12   2
M  RAD  1  13   2
M  END
$$$$
/tmp/tmp0om35lak
     RDKit          3D

 20 20  0  0  1  0  0  0  0  0999 V2000
   -6.3153  -12.4121   12.8155 C   0  0  0  0  0  3  0  0  0  0  0  0
   -5.6679  -13.0515   11.6055 C   0  0  0  0  0  1  0  0  0  0  0  0
   -5.3408  -11.4342   13.4467 C   0  0  0  0  0  2  0  0  0  0  0  0
   -4.7538   -8.1375   16.9787 C   0  0  0  0  0  2  0  0  0  0  0  0
   -5.8612   -8.7715   20.9122 C   0  0  0  0  0  3  0  0  0  0  0  0
   -5.4314   -7.5668   18.1281 N   0  0  0  0  0  2  0  0  0  0  0  0
   -6.8757   -7.8198   20.7669 C   0  0  0  0  0  0  0  0  0  0  0  0
   -5.6083  -10.4375   17.2782 C   0  0  0  0  0  1  0  0  0  0  0  0
   -8.1966   -8.2097   20.9825 C   0  0  0  0  0  3  0  0  0  0  0  0
   -6.0668  -10.5093   14.4087 C   0  0  0  0  0  2  0  0  0  0  0  0
   -4.7949   -6.5613   18.9112 C   0  0  0  0  0  3  0  0  0  0  0  0
   -5.6206   -9.2256   16.3513 C   0  0  0  0  0  3  0  0  0  0  0  0
   -8.4721   -9.4988   21.3135 N   0  0  0  0  0  0  0  0  0  0  0  0
   -7.5023  -10.4066   21.4430 N   0  0  0  0  0  0  0  0  0  0  0  0
   -6.1973  -10.0798   21.2524 C   0  0  0  0  0  3  0  0  0  0  0  0
   -6.6892  -13.4959   13.8092 C   0  0  0  0  0  1  0  0  0  0  0  0
   -6.5981   -6.4870   20.4370 O   0  0  0  0  0  0  0  0  0  0  0  0
   -5.3682   -6.0628   19.9640 N   0  0  0  0  0  0  0  0  0  0  0  0
   -5.1314   -8.4350   14.2243 N   0  0  0  0  0  1  0  0  0  0  0  0
   -5.1163   -9.5902   15.0221 N   0  0  0  0  0  0  0  0  0  0  0  0
  1 16  1  0
  1  3  1  0
  2  1  1  0
  4  6  1  0
  5  7  2  0
  5 15  1  0
  6 11  1  0
  7  9  1  0
  9 13  2  0
 10  3  1  0
 10 20  1  0
 11 18  2  0
 12  8  1  0
 12  4  1  0
 14 13  1  0
 15 14  2  0
 17  7  1  0
 18 17  1  0
 19 20  1  0
 20 12  1  0
M  RAD  8   1   2   2   2   3   3   4   3   5   2   6   2   8   2   9   2
M  RAD  6  10   3  11   2  12   2  15   2  16   2  19   3
M  END
$$$$
/tmp/tmpw27jpjgu
     RDKit          3D

 20 21  0  0  1  0  0  0  0  0999 V2000
   -7.1411   -8.4996   15.7554 N   0  0  0  0  0  1  0  0  0  0  0  0
   -5.1356   -9.1025   16.9565 C   0  0  0  0  0  0  0  0  0  0  0  0
   -6.4472  -12.2751   16.5917 C   0  0  0  0  0  3  0  0  0  0  0  0
   -6.1308  -12.3729   18.0571 C   0  0  0  0  0  2  0  0  0  0  0  0
   -5.3753   -9.7039   18.1247 C   0  0  0  0  0  3  0  0  0  0  0  0
   -6.7774   -7.9531   20.8159 C   0  0  0  0  0  0  0  0  0  0  0  0
   -7.6340   -8.5492   21.5871 N   0  0  0  0  0  0  0  0  0  0  0  0
   -6.5048   -9.4548   18.9643 N   0  0  0  0  0  0  0  0  0  0  0  0
   -4.2705   -9.7718   16.0268 N   0  0  0  0  0  0  0  0  0  0  0  0
   -3.3005  -11.6830   15.0520 O   0  0  0  0  0  1  0  0  0  0  0  0
   -7.2352  -11.8149   18.9138 C   0  0  0  0  0  3  0  0  0  0  0  0
   -8.6506   -9.4262   21.1544 N   0  0  0  0  0  0  0  0  0  0  0  0
   -3.7321   -9.0667   15.0020 O   0  0  0  0  0  1  0  0  0  0  0  0
   -6.8373   -8.0896   19.3385 C   0  0  0  0  0  2  0  0  0  0  0  0
   -8.5659  -10.3021   20.1922 C   0  0  0  0  0  3  0  0  0  0  0  0
   -5.5852  -11.8033   15.6741 C   0  0  0  0  0  3  0  0  0  0  0  0
   -7.3827  -10.5436   19.3445 C   0  0  0  0  0  0  0  0  0  0  0  0
   -4.2235  -11.2427   16.0023 C   0  0  0  0  0  3  0  0  0  0  0  0
   -5.9868   -7.9743   16.4638 C   0  0  0  0  0  2  0  0  0  0  0  0
   -5.7861   -7.1116   21.3919 N   0  0  0  0  0  1  0  0  0  0  0  0
  1 19  1  0
  2  5  2  0
  3  4  1  0
  4 11  1  0
  5  8  1  0
  6  7  2  0
  7 12  1  0
  8 14  1  0
  8 17  1  0
  9 18  1  0
  9  2  1  0
 11 17  2  0
 13  9  1  0
 14  6  1  0
 15 12  2  0
 16  3  2  0
 17 15  1  0
 18 10  1  0
 18 16  1  0
 19  2  1  0
 20  6  1  0
M  RAD  8   1   3   3   2   4   3   5   2  10   2  11   2  13   2  14   3
M  RAD  5  15   2  16   2  18   2  19   3  20   3
M  END
$$$$

     RDKit          3D

 16 17  0  0  0  0  0  0  0  0999 V2000
   -3.5141   -9.1549   12.2421 C   0  0  0  0  0  1  0  0  0  0  0  0
   -7.5695  -10.1595   20.3081 C   0  0  0  0  0  0  0  0  0  0  0  0
   -8.3449  -10.8280   21.1531 C   0  0  0  0  0  3  0  0  0  0  0  0
   -5.3007   -9.8386   16.5514 C   0  0  0  0  0  2  0  0  0  0  0  0
   -4.8470   -9.5129   17.9608 C   0  0  0  0  0  2  0  0  0  0  0  0
   -3.5318  -10.1456   13.3538 C   0  0  0  0  0  0  0  0  0  0  0  0
   -7.8290   -8.8031   19.9454 C   0  0  0  0  0  0  0  0  0  0  0  0
   -8.9792   -8.1036   20.4997 C   0  0  0  0  0  3  0  0  0  0  0  0
   -4.6566  -10.1418   14.3336 C   0  0  0  0  0  2  0  0  0  0  0  0
   -6.3848  -10.5941   19.5930 C   0  0  0  0  0  3  0  0  0  0  0  0
   -9.5473  -10.1406   21.7787 C   0  0  0  0  0  2  0  0  0  0  0  0
   -9.7509   -8.7414   21.3350 N   0  0  0  0  0  0  0  0  0  0  0  0
   -6.9206   -8.3772   19.0865 C   0  0  0  0  0  3  0  0  0  0  0  0
   -2.6352  -10.9676   13.4501 O   0  0  0  0  0  0  0  0  0  0  0  0
   -6.0131   -9.5237   18.8859 C   0  0  0  0  0  0  0  0  0  0  0  0
   -4.1563   -9.8245   15.6597 N   0  0  0  0  0  2  0  0  0  0  0  0
  1  6  1  0
  2  3  2  0
  2  7  1  0
  3 11  1  0
  4  5  1  0
  5 15  1  0
  6 14  2  0
  7  8  1  0
  8 12  2  0
  9  6  1  0
 10  2  1  0
 11 12  1  0
 13  7  2  0
 15 10  2  0
 15 13  1  0
 16  9  1  0
 16  4  1  0
M  RAD  8   1   2   3   2   4   3   5   3   8   2   9   3  10   2  11   3
M  RAD  2  13   2  16   2
M  END
$$$$

     RDKit          3D

 11 12  0  0  0  0  0  0  0  0999 V2000
   -5.9210   -8.1521   19.5155 C   0  0  0  0  0  0  0  0  0  0  0  0
   -5.4828   -7.1057   20.5053 C   0  0  0  0  0  2  0  0  0  0  0  0
   -7.6982  -11.3566   19.7630 C   0  0  0  0  0  3  0  0  0  0  0  0
   -7.5585   -8.9512   21.2102 C   0  0  0  0  0  0  0  0  0  0  0  0
   -7.2714   -7.9431   21.9777 N   0  0  0  0  0  0  0  0  0  0  0  0
   -6.6264   -6.7398   21.4549 C   0  0  0  0  0  2  0  0  0  0  0  0
   -8.2063  -10.1026   21.7641 N   0  0  0  0  0  0  0  0  0  0  0  0
   -7.1620  -10.3034   19.1425 C   0  0  0  0  0  3  0  0  0  0  0  0
   -5.2548   -8.3347   18.5083 O   0  0  0  0  0  0  0  0  0  0  0  0
   -8.2919  -11.2187   21.1044 C   0  0  0  0  0  3  0  0  0  0  0  0
   -7.2057   -8.9180   19.7371 C   0  0  0  0  0  3  0  0  0  0  0  0
  1 11  1  0
  1  2  1  0
  2  6  1  0
  3 10  1  0
  4  7  1  0
  4  5  2  0
  6  5  1  0
  8  3  2  0
  9  1  2  0
 10  7  2  0
 11  8  1  0
 11  4  1  0
M  RAD  6   2   3   3   2   6   3   8   2  10   2  11   2
M  END
$$$$
/tmp/tmp2u5ub3zs
     RDKit          3D

 20 23  0  0  1  0  0  0  0  0999 V2000
   -9.0961  -10.0448   21.2229 O   0  0  0  0  0  0  0  0  0  0  0  0
   -7.8997  -11.6587   19.9544 C   0  0  0  0  0  2  0  0  0  0  0  0
   -9.1136  -12.8710   18.1818 C   0  0  0  0  0  2  0  0  0  0  0  0
   -6.0294   -7.3184   20.5856 C   0  0  0  0  0  3  0  0  0  0  0  0
   -6.2795   -7.4045   15.6440 O   0  0  0  0  0  1  0  0  0  0  0  0
   -5.7176   -8.6335   18.4848 C   0  0  0  0  0  3  0  0  0  0  0  0
   -4.6557  -10.4295   15.3385 C   0  0  0  0  0  2  0  0  0  0  0  0
   -7.0970   -8.0058   20.9469 C   0  0  0  0  0  3  0  0  0  0  0  0
   -5.1573  -10.3683   16.7780 C   0  0  0  0  0  2  0  0  0  0  0  0
   -8.0441  -10.3141   20.5841 C   0  0  0  0  0  0  0  0  0  0  0  0
   -5.0100   -7.8834   15.3142 C   0  0  0  0  0  3  0  0  0  0  0  0
   -4.1430   -8.0209   16.5719 C   0  0  0  0  0  3  0  0  0  0  0  0
   -5.0791   -8.1645   19.7863 C   0  0  0  0  0  3  0  0  0  0  0  0
   -5.1433   -9.2099   14.5496 C   0  0  0  0  0  2  0  0  0  0  0  0
   -7.6774  -12.7161   17.7375 C   0  0  0  0  0  2  0  0  0  0  0  0
   -7.0184   -9.3254   20.4378 N   0  0  0  0  0  0  0  0  0  0  0  0
   -5.7687   -9.5232   19.7191 C   0  0  0  0  0  3  0  0  0  0  0  0
   -3.9932   -6.7913   17.2186 O   0  0  0  0  0  1  0  0  0  0  0  0
   -8.3539  -11.6016   18.5093 C   0  0  0  0  0  3  0  0  0  0  0  0
   -4.6373   -9.1302   17.5292 C   0  0  0  0  0  3  0  0  0  0  0  0
  2 10  1  0
  3 19  1  0
  4  8  2  0
  6 20  1  0
  6 13  1  0
  6 17  1  0
  7  9  1  0
 10  1  2  0
 11  5  1  0
 11 12  1  0
 12 20  1  0
 12 18  1  0
 13 17  1  0
 13  4  1  0
 14  7  1  0
 14 11  1  0
 15  3  1  0
 15 19  1  0
 16 10  1  0
 16  8  1  0
 17 16  1  0
 19  2  1  0
 20  9  1  0
M  RAD  8   2   3   3   3   4   2   5   2   6   2   7   3   8   2   9   3
M  RAD  8  11   2  12   2  13   2  14   3  15   3  17   2  18   2  19   2
M  RAD  1  20   2
M  END
$$$$
/tmp/tmp0tghawxk
     RDKit          3D

 20 22  0  0  1  0  0  0  0  0999 V2000
   -3.7893  -10.6981   15.5921 C   0  0  0  0  0  3  0  0  0  0  0  0
   -6.8307  -10.0771   18.9550 C   0  0  0  0  0  3  0  0  0  0  0  0
   -7.7060   -6.6014   20.4624 C   0  0  0  0  0  1  0  0  0  0  0  0
   -8.9741   -8.8474   19.0856 C   0  0  0  0  0  2  0  0  0  0  0  0
   -9.2454  -10.2716   18.6372 C   0  0  0  0  0  2  0  0  0  0  0  0
   -4.7151  -10.7979   17.9472 C   0  0  0  0  0  3  0  0  0  0  0  0
   -5.5450   -8.5190   17.3086 C   0  0  0  0  0  3  0  0  0  0  0  0
   -5.6652   -9.8506   18.0291 C   0  0  0  0  0  0  0  0  0  0  0  0
   -3.4884  -10.6320   17.0949 C   0  0  0  0  0  2  0  0  0  0  0  0
   -5.1859   -7.5458   15.1282 N   0  0  0  0  0  2  0  0  0  0  0  0
   -5.0692   -9.9671   15.1647 C   0  0  0  0  0  3  0  0  0  0  0  0
   -5.2324   -8.6194   15.8314 C   0  0  0  0  0  0  0  0  0  0  0  0
   -7.5167   -8.8105   19.3750 C   0  0  0  0  0  0  0  0  0  0  0  0
   -4.5088   -7.7348   19.4739 N   0  0  0  0  0  0  0  0  0  0  0  0
   -6.9121   -7.7723   19.9867 C   0  0  0  0  0  0  0  0  0  0  0  0
   -3.8569  -12.0322   15.1890 O   0  0  0  0  0  1  0  0  0  0  0  0
   -7.9064  -10.8783   18.2420 C   0  0  0  0  0  2  0  0  0  0  0  0
   -5.4808   -7.8033   20.3385 C   0  0  0  0  0  3  0  0  0  0  0  0
   -4.6234   -7.5214   18.0264 C   0  0  0  0  0  2  0  0  0  0  0  0
   -5.1101   -9.8546   13.7722 O   0  0  0  0  0  1  0  0  0  0  0  0
  1 16  1  0
  1 11  1  0
  1  9  1  0
  2 17  1  0
  2 13  1  0
  5  4  1  0
  6  8  2  0
  7 19  1  0
  7  8  1  0
  8  2  1  0
  9  6  1  0
 10 12  2  0
 11 20  1  0
 11 12  1  0
 12  7  1  0
 13 15  2  0
 13  4  1  0
 14 18  2  0
 15  3  1  0
 17  5  1  0
 18 15  1  0
 19 14  1  0
M  RAD  8   1   2   2   2   3   2   4   3   5   3   6   2   7   2   9   3
M  RAD  7  10   2  11   2  16   2  17   3  18   2  19   3  20   2
M  END
$$$$

     RDKit          3D

 19 19  0  0  0  0  0  0  0  0999 V2000
   -7.9373   -7.7535   19.6862 C   0  0  0  0  0  3  0  0  0  0  0  0
   -3.3638   -6.4742   17.0323 O   0  0  0  0  0  0  0  0  0  0  0  0
   -4.0795   -7.0626   16.1766 C   0  0  0  0  0  0  0  0  0  0  0  0
   -5.6033   -8.3710   19.1451 C   0  0  0  0  0  0  0  0  0  0  0  0
   -4.4747  -10.4789   20.2703 C   0  0  0  0  0  3  0  0  0  0  0  0
   -4.9891   -9.5169   19.7566 C   0  0  0  0  0  0  0  0  0  0  0  0
   -8.6120   -8.7646   20.2456 C   0  0  0  0  0  3  0  0  0  0  0  0
   -5.7394   -8.2745   14.1462 C   0  0  0  0  0  2  0  0  0  0  0  0
   -8.9720  -10.7072   21.6160 N   0  0  0  0  0  2  0  0  0  0  0  0
   -3.7868   -6.8488   14.7228 C   0  0  0  0  0  2  0  0  0  0  0  0
   -7.4598   -8.7744   15.8524 C   0  0  0  0  0  1  0  0  0  0  0  0
   -5.2277   -7.9010   16.6000 C   0  0  0  0  0  0  0  0  0  0  0  0
   -8.6109  -11.7338   22.5315 C   0  0  0  0  0  3  0  0  0  0  0  0
   -9.4838  -12.6134   22.8912 N   0  0  0  0  0  2  0  0  0  0  0  0
   -5.4128   -8.1358   17.8758 C   0  0  0  0  0  0  0  0  0  0  0  0
   -4.2604   -8.0291   13.8838 C   0  0  0  0  0  2  0  0  0  0  0  0
   -6.4853   -7.4738   19.9511 C   0  0  0  0  0  2  0  0  0  0  0  0
   -5.9630   -8.7484   15.5820 C   0  0  0  0  0  3  0  0  0  0  0  0
   -7.9906   -9.7192   21.2126 C   0  0  0  0  0  2  0  0  0  0  0  0
  1  7  2  0
  3  2  2  0
  3 12  1  0
  4 17  1  0
  5  6  3  0
  6  4  1  0
  8 18  1  0
  9 19  1  0
 10 16  1  0
 10  3  1  0
 12 15  2  0
 13  9  1  0
 14 13  2  0
 15  4  2  0
 16  8  1  0
 17  1  1  0
 18 11  1  0
 18 12  1  0
 19  7  1  0
M  RAD  8   1   2   5   2   7   2   8   3   9   2  10   3  11   2  13   2
M  RAD  5  14   2  16   3  17   3  18   2  19   3
M  END
$$$$
/tmp/tmpsg8t3c2h
     RDKit          3D

 20 23  0  0  1  0  0  0  0  0999 V2000
   -6.3088   -7.7752   16.9414 C   0  0  0  0  0  0  0  0  0  0  0  0
   -4.8765   -7.6447   14.9539 C   0  0  0  0  0  3  0  0  0  0  0  0
   -4.3335  -11.3720   14.7542 C   0  0  0  0  0  3  0  0  0  0  0  0
   -4.5362   -9.0682   15.2761 C   0  0  0  0  0  3  0  0  0  0  0  0
   -5.7012   -7.0115   15.8090 C   0  0  0  0  0  3  0  0  0  0  0  0
   -5.3355  -11.1845   15.9049 C   0  0  0  0  0  2  0  0  0  0  0  0
   -5.7812   -9.7589   15.7322 C   0  0  0  0  0  3  0  0  0  0  0  0
   -6.1369   -9.5563   20.0862 C   0  0  0  0  0  0  0  0  0  0  0  0
   -6.8786   -7.0658   18.0440 N   0  0  0  0  0  2  0  0  0  0  0  0
   -5.9138  -10.8438   19.8649 N   0  0  0  0  0  0  0  0  0  0  0  0
   -6.2981  -13.0012   20.8983 N   0  0  0  0  0  1  0  0  0  0  0  0
   -7.4131   -7.7309   19.2243 C   0  0  0  0  0  2  0  0  0  0  0  0
   -5.0602  -12.3702   13.4746 S   0  0  0  0  0  1  0  0  0  0  0  0
   -6.2896   -9.0856   16.9255 N   0  0  0  0  0  0  0  0  0  0  0  0
   -4.0167   -9.9756   14.1977 C   0  0  0  0  0  2  0  0  0  0  0  0
   -7.0860  -10.9902   22.0383 N   0  0  0  0  0  0  0  0  0  0  0  0
   -6.4313  -11.5856   20.9289 C   0  0  0  0  0  0  0  0  0  0  0  0
   -6.8001   -8.9207   21.2005 C   0  0  0  0  0  0  0  0  0  0  0  0
   -7.3077   -9.6271   22.2335 C   0  0  0  0  0  3  0  0  0  0  0  0
   -6.2809   -8.1662   20.1376 C   0  0  0  0  0  3  0  0  0  0  0  0
  1 14  2  0
  1  9  1  0
  2  4  1  0
  2  5  2  0
  3 13  1  0
  3  6  1  0
  4 15  1  0
  4  7  1  0
  5  1  1  0
  7  6  1  0
  7 14  1  0
  8 20  1  0
  8 18  2  0
  9 12  1  0
 10 17  2  0
 10  8  1  0
 11 17  1  0
 15  3  1  0
 16 19  2  0
 17 16  1  0
 18 19  1  0
 20 12  1  0
 20 18  1  0
M  RAD  8   2   2   3   2   4   2   5   2   6   3   7   2   9   2  11   3
M  RAD  5  12   3  13   2  15   3  19   2  20   2
M  END
$$$$
/tmp/tmplvmvrr9x
     RDKit          3D

 20 24  0  0  1  0  0  0  0  0999 V2000
   -6.1177   -8.9479   17.6054 C   0  0  0  0  0  0  0  0  0  0  0  0
   -4.2830  -11.4568   13.9152 C   0  0  0  0  0  2  0  0  0  0  0  0
   -5.4073  -11.0701   19.2682 C   0  0  0  0  0  3  0  0  0  0  0  0
   -5.6607  -10.1346   17.0155 C   0  0  0  0  0  0  0  0  0  0  0  0
   -5.8789   -9.8752   19.8355 C   0  0  0  0  0  0  0  0  0  0  0  0
   -6.9253  -10.5466   21.9100 N   0  0  0  0  0  0  0  0  0  0  0  0
   -8.0015   -7.4171   20.1849 C   0  0  0  0  0  3  0  0  0  0  0  0
   -6.3605  -11.4238   14.9935 C   0  0  0  0  0  2  0  0  0  0  0  0
   -6.9794   -6.7940   18.0488 N   0  0  0  0  0  2  0  0  0  0  0  0
   -6.2239   -8.8136   18.9684 C   0  0  0  0  0  0  0  0  0  0  0  0
   -6.8503   -7.5196   15.7816 N   0  0  0  0  0  2  0  0  0  0  0  0
   -6.7314   -7.4317   19.3436 C   0  0  0  0  0  3  0  0  0  0  0  0
   -8.2361   -8.2455   21.1646 N   0  0  0  0  0  0  0  0  0  0  0  0
   -7.2910   -9.2643   21.4588 C   0  0  0  0  0  0  0  0  0  0  0  0
   -5.5441  -10.2619   15.5256 C   0  0  0  0  0  3  0  0  0  0  0  0
   -6.0155   -9.7101   21.3254 C   0  0  0  0  0  3  0  0  0  0  0  0
   -6.5550   -7.6924   17.0270 C   0  0  0  0  0  0  0  0  0  0  0  0
   -4.1277  -10.5384   15.1007 C   0  0  0  0  0  2  0  0  0  0  0  0
   -5.5176  -12.2085   14.0970 N   0  0  0  0  0  2  0  0  0  0  0  0
   -5.3000  -11.1980   17.8704 C   0  0  0  0  0  3  0  0  0  0  0  0
  1 10  2  0
  2 18  1  0
  2 19  1  0
  3  5  2  0
  4  1  1  0
  4 20  2  0
  7 13  2  0
  9 12  1  0
 10 12  1  0
 10  5  1  0
 11 17  2  0
 12  7  1  0
 14 13  1  0
 14  6  2  0
 15  8  1  0
 15  4  1  0
 16  5  1  0
 16 14  1  0
 16  6  1  0
 17  1  1  0
 17  9  1  0
 18 15  1  0
 19  8  1  0
 20  3  1  0
M  RAD  8   2   3   3   2   7   2   8   3   9   2  11   2  12   2  15   2
M  RAD  4  16   2  18   3  19   2  20   2
M  END
$$$$
/tmp/tmpu9m2psyu
     RDKit          3D

 20 21  0  0  0  0  0  0  0  0999 V2000
   -6.5030  -13.7085   18.2049 C   0  0  0  0  0  3  0  0  0  0  0  0
   -6.0340   -8.9084   16.8853 N   0  0  0  0  0  2  0  0  0  0  0  0
   -7.1243  -11.2280   20.6556 C   0  0  0  0  0  3  0  0  0  0  0  0
   -7.5069   -8.6637   19.6660 C   0  0  0  0  0  0  0  0  0  0  0  0
   -6.2209  -10.7223   19.7173 C   0  0  0  0  0  0  0  0  0  0  0  0
   -5.4494   -8.8501   18.2154 C   0  0  0  0  0  2  0  0  0  0  0  0
   -4.8309  -11.7482   19.2186 S   0  0  0  0  0  0  0  0  0  0  0  0
   -7.2155  -14.3508   17.1877 C   0  0  0  0  0  3  0  0  0  0  0  0
   -8.1772  -10.4767   21.0707 N   0  0  0  0  0  0  0  0  0  0  0  0
   -5.7044  -12.0701   16.6103 C   0  0  0  0  0  3  0  0  0  0  0  0
   -5.3569   -8.5719   15.6673 C   0  0  0  0  0  0  0  0  0  0  0  0
   -3.0075   -8.5135   16.6941 C   0  0  0  0  0  1  0  0  0  0  0  0
   -7.7625   -7.2771   19.1786 C   0  0  0  0  0  1  0  0  0  0  0  0
   -6.0289   -8.5029   14.6062 O   0  0  0  0  0  0  0  0  0  0  0  0
   -7.1737  -13.8516   15.8822 C   0  0  0  0  0  3  0  0  0  0  0  0
   -6.4065   -9.4191   19.2178 C   0  0  0  0  0  0  0  0  0  0  0  0
   -5.7516  -12.5635   17.9182 C   0  0  0  0  0  0  0  0  0  0  0  0
   -6.4170  -12.7118   15.5932 C   0  0  0  0  0  3  0  0  0  0  0  0
   -8.3839   -9.2197   20.5989 C   0  0  0  0  0  3  0  0  0  0  0  0
   -3.9469   -8.3189   15.6028 N   0  0  0  0  0  2  0  0  0  0  0  0
  2  6  1  0
  3  9  2  0
  4 19  2  0
  5  3  1  0
  6 16  1  0
  7  5  1  0
  8  1  2  0
 10 17  2  0
 11 20  1  0
 11  2  1  0
 12 20  1  0
 13  4  1  0
 14 11  2  0
 15  8  1  0
 16  4  1  0
 16  5  2  0
 17  1  1  0
 17  7  1  0
 18 15  2  0
 18 10  1  0
 19  9  1  0
M  RAD  8   1   2   2   2   3   2   6   3   8   2  10   2  12   2  13   2
M  RAD  4  15   2  18   2  19   2  20   2
M  END
$$$$
/tmp/tmpvr9dd6j9
     RDKit          3D

 20 22  0  0  1  0  0  0  0  0999 V2000
   -7.1029   -8.1682   16.2117 N   0  0  0  0  0  2  0  0  0  0  0  0
   -5.2238   -8.1303   14.5956 C   0  0  0  0  0  2  0  0  0  0  0  0
   -6.0319   -6.8874   20.7614 N   0  0  0  0  0  0  0  0  0  0  0  0
   -7.9306  -11.2513   21.0590 C   0  0  0  0  0  1  0  0  0  0  0  0
   -6.1864   -8.9946   15.4240 C   0  0  0  0  0  3  0  0  0  0  0  0
   -3.8911   -8.8184   14.2958 C   0  0  0  0  0  2  0  0  0  0  0  0
   -6.5668   -7.9796   21.2152 C   0  0  0  0  0  0  0  0  0  0  0  0
   -6.2563   -7.7364   18.4966 C   0  0  0  0  0  0  0  0  0  0  0  0
   -7.4456   -8.0029   22.3100 N   0  0  0  0  0  2  0  0  0  0  0  0
   -8.0333   -9.7441   20.9443 C   0  0  0  0  0  3  0  0  0  0  0  0
   -6.8843   -8.7786   18.9696 N   0  0  0  0  0  0  0  0  0  0  0  0
   -4.0828  -10.1223   13.5817 C   0  0  0  0  0  3  0  0  0  0  0  0
   -8.2481   -9.1537   22.2789 N   0  0  0  0  0  2  0  0  0  0  0  0
   -5.2205  -11.3284   15.5170 C   0  0  0  0  0  2  0  0  0  0  0  0
   -4.7554  -12.6439   13.1023 Cl  0  0  0  0  0  0  0  0  0  0  0  0
   -4.6697  -11.2113   14.1086 C   0  0  0  0  0  0  0  0  0  0  0  0
   -6.3638   -7.3857   17.1166 N   0  0  0  0  0  2  0  0  0  0  0  0
   -5.4289   -6.8802   19.4255 C   0  0  0  0  0  2  0  0  0  0  0  0
   -6.7364   -9.1744   20.3737 C   0  0  0  0  0  3  0  0  0  0  0  0
   -5.4663  -10.0292   16.2876 C   0  0  0  0  0  2  0  0  0  0  0  0
  1 17  1  0
  2  5  1  0
  3  7  2  0
  5  1  1  0
  5 20  1  0
  6  2  1  0
  7  9  1  0
  8 11  2  0
  8 18  1  0
 10  4  1  0
 10 13  1  0
 12  6  1  0
 12 16  2  0
 13  9  1  0
 14 20  1  0
 15 16  1  0
 16 14  1  0
 17  8  1  0
 18  3  1  0
 19 11  1  0
 19 10  1  0
 19  7  1  0
M  RAD  8   1   2   2   3   4   2   5   2   6   3   9   2  10   2  12   2
M  RAD  6  13   2  14   3  17   2  18   3  19   2  20   3
M  END
$$$$
/tmp/tmpbcbuod59
     RDKit          3D

 20 22  0  0  1  0  0  0  0  0999 V2000
   -5.0447  -10.1797   15.5667 C   0  0  0  0  0  3  0  0  0  0  0  0
   -4.9578   -8.6477   17.5776 C   0  0  0  0  0  3  0  0  0  0  0  0
   -5.5853  -12.8992   15.1036 C   0  0  0  0  0  2  0  0  0  0  0  0
   -6.7463  -11.3461   21.3515 N   0  0  0  0  0  1  0  0  0  0  0  0
   -6.6376  -12.1676   15.9391 C   0  0  0  0  0  3  0  0  0  0  0  0
   -6.5633   -9.5869   19.7181 N   0  0  0  0  0  0  0  0  0  0  0  0
   -6.4847  -10.6442   15.8417 C   0  0  0  0  0  2  0  0  0  0  0  0
   -4.0070  -11.1485   16.1331 C   0  0  0  0  0  2  0  0  0  0  0  0
   -6.7501   -8.3087   19.2780 C   0  0  0  0  0  0  0  0  0  0  0  0
   -4.1484  -12.5457   15.5178 C   0  0  0  0  0  2  0  0  0  0  0  0
   -6.2666   -7.9429   17.9015 C   0  0  0  0  0  3  0  0  0  0  0  0
   -7.8529   -7.8098   21.3744 C   0  0  0  0  0  3  0  0  0  0  0  0
   -7.4332   -7.3843   20.1112 C   0  0  0  0  0  0  0  0  0  0  0  0
   -7.6260   -9.1175   21.7977 C   0  0  0  0  0  3  0  0  0  0  0  0
   -6.9772  -10.0038   20.9426 C   0  0  0  0  0  0  0  0  0  0  0  0
   -4.8156   -8.7552   16.0661 C   0  0  0  0  0  2  0  0  0  0  0  0
   -4.9471   -7.1950   17.9900 C   0  0  0  0  0  2  0  0  0  0  0  0
   -6.5585  -12.5694   17.2737 O   0  0  0  0  0  1  0  0  0  0  0  0
   -7.7575   -5.9908   19.7462 C   0  0  0  0  0  3  0  0  0  0  0  0
   -7.5303   -5.4950   18.5752 N   0  0  0  0  0  2  0  0  0  0  0  0
  1 16  1  0
  1  8  1  0
  2 16  1  0
  2 17  1  0
  2 11  1  0
  3  5  1  0
  3 10  1  0
  5 18  1  0
  6 15  2  0
  7  1  1  0
  7  5  1  0
  9  6  1  0
  9 13  2  0
 10  8  1  0
 11  9  1  0
 12 14  2  0
 13 12  1  0
 15  4  1  0
 15 14  1  0
 17 11  1  0
 19 13  1  0
 20 19  2  0
M  RAD  8   1   2   2   2   3   3   4   3   5   2   7   3   8   3  10   3
M  RAD  8  11   2  12   2  14   2  16   3  17   3  18   2  19   2  20   2
M  END
$$$$
/tmp/tmpgmineep2
     RDKit          3D

 20 20  0  0  1  0  0  0  0  0999 V2000
   -5.0688   -6.5971   19.2985 N   0  0  0  0  0  1  0  0  0  0  0  0
   -6.0743   -8.7646   19.2817 C   0  0  0  0  0  0  0  0  0  0  0  0
   -5.2200   -7.8420   15.3341 C   0  0  0  0  0  2  0  0  0  0  0  0
   -6.7995   -7.1080   20.9965 C   0  0  0  0  0  3  0  0  0  0  0  0
   -5.8248   -9.2351   15.2777 C   0  0  0  0  0  2  0  0  0  0  0  0
   -8.8504   -8.4858   20.5611 C   0  0  0  0  0  3  0  0  0  0  0  0
   -4.9138  -10.2347   15.9757 C   0  0  0  0  0  3  0  0  0  0  0  0
   -9.2197  -10.3252   19.1507 O   0  0  0  0  0  1  0  0  0  0  0  0
   -8.0381   -7.5092   21.3111 C   0  0  0  0  0  3  0  0  0  0  0  0
   -5.9946   -7.5407   19.8321 C   0  0  0  0  0  0  0  0  0  0  0  0
   -8.3559   -9.5130   19.8723 C   0  0  0  0  0  0  0  0  0  0  0  0
   -3.9156  -12.3417   15.4356 O   0  0  0  0  0  1  0  0  0  0  0  0
   -4.3444  -11.3049   18.2136 C   0  0  0  0  0  2  0  0  0  0  0  0
   -6.9030   -9.8474   19.9045 C   0  0  0  0  0  2  0  0  0  0  0  0
   -6.2147   -6.8134   14.8291 C   0  0  0  0  0  2  0  0  0  0  0  0
   -5.2978   -9.0595   18.1143 N   0  0  0  0  0  2  0  0  0  0  0  0
   -3.0422  -10.7999   18.2135 O   0  0  0  0  0  1  0  0  0  0  0  0
   -7.2745   -6.5461   15.8816 C   0  0  0  0  0  1  0  0  0  0  0  0
   -5.2873  -10.3656   17.4629 C   0  0  0  0  0  3  0  0  0  0  0  0
   -5.0645  -11.5701   15.2613 C   0  0  0  0  0  2  0  0  0  0  0  0
  1 10  1  0
  2 10  2  0
  2 14  1  0
  3 15  1  0
  4  9  2  0
  5  3  1  0
  7  5  1  0
  7 19  1  0
  9  6  1  0
 10  4  1  0
 11  8  1  0
 11  6  2  0
 13 17  1  0
 14 11  1  0
 15 18  1  0
 16  2  1  0
 19 13  1  0
 19 16  1  0
 20 12  1  0
 20  7  1  0
M  RAD  8   1   3   3   3   4   2   5   3   6   2   7   2   8   2   9   2
M  RAD  8  12   2  13   3  14   3  15   3  16   2  17   2  18   2  19   2
M  RAD  1  20   3
M  END
$$$$

     RDKit          3D

 11 11  0  0  0  0  0  0  0  0999 V2000
   -4.9969   -6.2716   20.8689 C   0  0  0  0  0  2  0  0  0  0  0  0
   -7.1310  -11.3984   17.5895 O   0  0  0  0  0  0  0  0  0  0  0  0
   -5.5200   -7.3740   20.3566 C   0  0  0  0  0  3  0  0  0  0  0  0
   -8.0767  -11.7208   19.8216 C   0  0  0  0  0  3  0  0  0  0  0  0
   -6.8877   -9.3831   20.6683 C   0  0  0  0  0  0  0  0  0  0  0  0
   -6.7115   -9.8033   19.3442 C   0  0  0  0  0  3  0  0  0  0  0  0
   -8.2196  -11.2736   21.0963 N   0  0  0  0  0  0  0  0  0  0  0  0
   -7.7090  -12.5898   17.0739 C   0  0  0  0  0  1  0  0  0  0  0  0
   -7.6435  -10.1415   21.5056 N   0  0  0  0  0  0  0  0  0  0  0  0
   -7.3105  -10.9842   18.9119 C   0  0  0  0  0  0  0  0  0  0  0  0
   -6.3075   -8.2058   21.1502 O   0  0  0  0  0  0  0  0  0  0  0  0
  1  3  2  0
  2 10  1  0
  3 11  1  0
  4  7  2  0
  5 11  1  0
  5  9  2  0
  6  5  1  0
  7  9  1  0
  8  2  1  0
 10  6  2  0
 10  4  1  0
M  RAD  5   1   3   3   2   4   2   6   2   8   2
M  END
$$$$

     RDKit          3D

 12 11  0  0  0  0  0  0  0  0999 V2000
   -6.7930   -8.6115   21.0700 C   0  0  0  0  0  3  0  0  0  0  0  0
   -6.6827   -7.3094   21.3145 C   0  0  0  0  0  3  0  0  0  0  0  0
   -6.3827  -11.2055   18.4380 N   0  0  0  0  0  2  0  0  0  0  0  0
   -6.8375  -10.6707   19.5272 C   0  0  0  0  0  0  0  0  0  0  0  0
   -8.2151  -11.0319   21.6211 N   0  0  0  0  0  1  0  0  0  0  0  0
   -7.3395  -12.8085   20.4270 O   0  0  0  0  0  0  0  0  0  0  0  0
   -7.4552  -11.5589   20.5379 C   0  0  0  0  0  0  0  0  0  0  0  0
   -6.6690   -8.1136   16.2854 C   0  0  0  0  0  1  0  0  0  0  0  0
   -6.4985   -8.4288   18.6760 C   0  0  0  0  0  0  0  0  0  0  0  0
   -6.7278   -9.1990   19.7152 C   0  0  0  0  0  0  0  0  0  0  0  0
   -6.7607   -6.8072   22.7106 C   0  0  0  0  0  1  0  0  0  0  0  0
   -6.2713   -7.6649   17.6451 C   0  0  0  0  0  3  0  0  0  0  0  0
  2  1  2  0
  3  4  2  0
  4  7  1  0
  4 10  1  0
  6  7  2  0
  7  5  1  0
  8 12  1  0
  9 10  2  0
 10  1  1  0
 11  2  1  0
 12  9  2  0
M  RAD  7   1   2   2   2   3   2   5   3   8   2  11   2  12   2
M  END
$$$$
/tmp/tmp7v67qu4t
     RDKit          3D

 20 22  0  0  1  0  0  0  0  0999 V2000
   -5.2403   -7.8173   20.4315 C   0  0  0  0  0  3  0  0  0  0  0  0
   -7.4318   -6.9110   19.9450 C   0  0  0  0  0  3  0  0  0  0  0  0
   -6.9074  -12.7633   18.7013 C   0  0  0  0  0  2  0  0  0  0  0  0
   -7.7732  -10.5761   20.5232 N   0  0  0  0  0  2  0  0  0  0  0  0
   -4.6579  -10.1280   15.1472 C   0  0  0  0  0  2  0  0  0  0  0  0
   -7.1775   -9.2817   20.3916 C   0  0  0  0  0  0  0  0  0  0  0  0
   -6.1571  -12.7229   17.4105 C   0  0  0  0  0  0  0  0  0  0  0  0
   -7.9895   -8.1860   20.0799 C   0  0  0  0  0  3  0  0  0  0  0  0
   -5.3207  -11.4883   15.3120 C   0  0  0  0  0  2  0  0  0  0  0  0
   -7.0231  -11.7884   20.8340 C   0  0  0  0  0  2  0  0  0  0  0  0
   -5.5163  -13.7459   17.0508 O   0  0  0  0  0  0  0  0  0  0  0  0
   -6.8167  -10.4143   16.9353 C   0  0  0  0  0  3  0  0  0  0  0  0
   -5.2703   -7.8511   15.9071 C   0  0  0  0  0  2  0  0  0  0  0  0
   -5.7180   -9.0266   15.0690 C   0  0  0  0  0  3  0  0  0  0  0  0
   -6.1214  -12.1182   19.7405 N   0  0  0  0  0  2  0  0  0  0  0  0
   -6.0573   -6.7267   20.1204 C   0  0  0  0  0  3  0  0  0  0  0  0
   -6.1249  -11.5035   16.5785 C   0  0  0  0  0  0  0  0  0  0  0  0
   -5.7982   -9.0917   20.5679 C   0  0  0  0  0  3  0  0  0  0  0  0
   -6.3352   -8.0295   16.8889 N   0  0  0  0  0  2  0  0  0  0  0  0
   -6.8351   -9.1514   16.1082 C   0  0  0  0  0  3  0  0  0  0  0  0
  1 18  2  0
  1 16  1  0
  2  8  1  0
  3 15  1  0
  5  9  1  0
  6  4  1  0
  6  8  2  0
  7  3  1  0
  9 17  1  0
 10  4  1  0
 11  7  2  0
 12 17  2  0
 14 13  1  0
 14  5  1  0
 15 10  1  0
 16  2  2  0
 17  7  1  0
 18  6  1  0
 19 20  1  0
 19 13  1  0
 20 14  1  0
 20 12  1  0
M  RAD  8   1   2   2   2   3   3   4   2   5   3   8   2   9   3  10   3
M  RAD  8  12   2  13   3  14   2  15   2  16   2  18   2  19   2  20   2
M  END
$$$$

     RDKit          3D

 15 15  0  0  0  0  0  0  0  0999 V2000
   -6.6184   -8.6074   18.2733 C   0  0  0  0  0  0  0  0  0  0  0  0
   -5.4569   -9.2388   17.5728 C   0  0  0  0  0  3  0  0  0  0  0  0
   -6.6355  -12.4223   15.6090 C   0  0  0  0  0  1  0  0  0  0  0  0
   -5.0524   -8.4076   16.3431 C   0  0  0  0  0  3  0  0  0  0  0  0
   -6.4119   -7.5112   19.1963 N   0  0  0  0  0  2  0  0  0  0  0  0
   -7.2141   -8.0605   15.2252 N   0  0  0  0  0  1  0  0  0  0  0  0
   -6.6455   -8.4798   19.6055 C   0  0  0  0  0  2  0  0  0  0  0  0
   -5.7606  -10.6717   17.2166 C   0  0  0  0  0  0  0  0  0  0  0  0
   -6.0413  -10.1667   14.7894 C   0  0  0  0  0  2  0  0  0  0  0  0
   -3.5545   -8.4909   16.0580 C   0  0  0  0  0  2  0  0  0  0  0  0
   -6.0112   -6.1565   18.6841 C   0  0  0  0  0  1  0  0  0  0  0  0
   -5.6158  -11.5960   18.1707 C   0  0  0  0  0  2  0  0  0  0  0  0
   -3.1710   -9.7943   15.7352 O   0  0  0  0  0  1  0  0  0  0  0  0
   -5.9028   -8.6733   15.0901 C   0  0  0  0  0  3  0  0  0  0  0  0
   -6.5921  -10.9469   15.9806 C   0  0  0  0  0  3  0  0  0  0  0  0
  1  5  1  0
  1  7  2  0
  2  8  1  0
  2  1  1  0
  4 10  1  0
  4  2  1  0
  5 11  1  0
  8 12  2  0
  9 14  1  0
  9 15  1  0
 13 10  1  0
 14  6  1  0
 14  4  1  0
 15  3  1  0
 15  8  1  0
M  RAD  8   2   2   3   2   4   2   5   2   6   3   7   3   9   3  10   3
M  RAD  5  11   2  12   3  13   2  14   2  15   2
M  END
$$$$
/tmp/tmpya9n69x_
     RDKit          3D

 20 22  0  0  0  0  0  0  0  0999 V2000
   -8.5365  -11.8059   15.8006 C   0  0  0  0  0  2  0  0  0  0  0  0
   -7.4693   -7.9223   21.3084 C   0  0  0  0  0  3  0  0  0  0  0  0
   -5.0594   -9.5911   16.8510 O   0  0  0  0  0  0  0  0  0  0  0  0
   -7.5984  -11.7956   16.9005 N   0  0  0  0  0  0  0  0  0  0  0  0
   -9.7876  -11.3339   16.2666 O   0  0  0  0  0  0  0  0  0  0  0  0
   -6.4007  -12.6314   16.8661 C   0  0  0  0  0  2  0  0  0  0  0  0
   -4.6249  -10.8577   16.4499 C   0  0  0  0  0  2  0  0  0  0  0  0
   -5.1629  -11.9174   17.4037 C   0  0  0  0  0  2  0  0  0  0  0  0
   -7.8263  -10.6902   18.9560 C   0  0  0  0  0  0  0  0  0  0  0  0
   -6.2418   -7.4159   21.4048 C   0  0  0  0  0  3  0  0  0  0  0  0
   -7.9913   -8.5989   20.0858 C   0  0  0  0  0  2  0  0  0  0  0  0
   -4.3882   -6.5821   20.2410 O   0  0  0  0  0  0  0  0  0  0  0  0
   -8.3304  -11.4997   18.0660 C   0  0  0  0  0  0  0  0  0  0  0  0
   -9.7423  -11.3576   17.6788 C   0  0  0  0  0  2  0  0  0  0  0  0
   -5.7950   -9.7970   19.4959 C   0  0  0  0  0  3  0  0  0  0  0  0
   -3.6329   -8.6792   17.2030 S   0  0  0  0  0  0  0  0  0  0  0  0
   -5.1850   -7.5465   20.3871 C   0  0  0  0  0  0  0  0  0  0  0  0
   -4.9192   -8.8116   19.6632 C   0  0  0  0  0  0  0  0  0  0  0  0
   -3.5935   -9.0387   19.0076 C   0  0  0  0  0  2  0  0  0  0  0  0
   -7.2325   -9.8342   19.7358 C   0  0  0  0  0  0  0  0  0  0  0  0
  1  4  1  0
  1  5  1  0
  4 13  1  0
  5 14  1  0
  6  4  1  0
  7  3  1  0
  7  8  1  0
  8  6  1  0
  9 20  2  0
 10  2  2  0
 11  2  1  0
 12 17  2  0
 13 14  1  0
 13  9  2  0
 15 20  1  0
 16  3  1  0
 16 19  1  0
 17 10  1  0
 18 15  2  0
 18 17  1  0
 19 18  1  0
 20 11  1  0
M  RAD  8   1   3   2   2   6   3   7   3   8   3  10   2  11   3  14   3
M  RAD  2  15   2  19   3
M  END
$$$$
/tmp/tmp98w3j46h
     RDKit          3D

 20 20  0  0  1  0  0  0  0  0999 V2000
   -7.4018  -10.4533   19.1276 C   0  0  0  0  0  0  0  0  0  0  0  0
   -7.1583  -10.5553   17.8463 C   0  0  0  0  0  0  0  0  0  0  0  0
   -5.2350   -7.9609   15.7593 C   0  0  0  0  0  3  0  0  0  0  0  0
   -4.9084   -6.2156   19.4290 O   0  0  0  0  0  1  0  0  0  0  0  0
   -7.2088   -9.1811   21.2739 C   0  0  0  0  0  3  0  0  0  0  0  0
   -6.2191   -6.9180   16.0084 N   0  0  0  0  0  1  0  0  0  0  0  0
   -4.6344   -7.0788   13.6153 C   0  0  0  0  0  1  0  0  0  0  0  0
   -4.8239  -11.2412   15.3415 C   0  0  0  0  0  2  0  0  0  0  0  0
   -6.9236  -12.7156   20.3482 C   0  0  0  0  0  1  0  0  0  0  0  0
   -5.8451   -9.0676   15.1557 O   0  0  0  0  0  0  0  0  0  0  0  0
   -6.9077  -10.6461   16.5711 C   0  0  0  0  0  3  0  0  0  0  0  0
   -5.9785   -7.1002   21.4015 C   0  0  0  0  0  3  0  0  0  0  0  0
   -8.3875  -11.7371   19.9049 S   0  0  0  0  0  0  0  0  0  0  0  0
   -5.6145  -10.1326   16.0325 C   0  0  0  0  0  3  0  0  0  0  0  0
   -6.9084   -9.2929   19.9076 C   0  0  0  0  0  0  0  0  0  0  0  0
   -6.1335   -8.2889   19.3001 C   0  0  0  0  0  3  0  0  0  0  0  0
   -6.7469   -8.0911   22.0173 C   0  0  0  0  0  3  0  0  0  0  0  0
   -5.6717   -7.1991   20.0424 C   0  0  0  0  0  0  0  0  0  0  0  0
   -4.1382   -7.4531   14.9345 N   0  0  0  0  0  2  0  0  0  0  0  0
   -5.5179  -11.7426   14.0840 C   0  0  0  0  0  1  0  0  0  0  0  0
  1 15  1  0
  1 13  1  0
  2  1  2  0
  3  6  1  0
  3 19  1  0
  4 18  1  0
  5 17  2  0
  7 19  1  0
  9 13  1  0
 10  3  1  0
 10 14  1  0
 11  2  2  0
 12 17  1  0
 14  8  1  0
 14 11  1  0
 15  5  1  0
 16 18  1  0
 16 15  2  0
 18 12  2  0
 20  8  1  0
M  RAD  8   3   2   4   2   5   2   6   3   7   2   8   3   9   2  11   2
M  RAD  6  12   2  14   2  16   2  17   2  19   2  20   2
M  END
$$$$

     RDKit          3D

 13 14  0  0  0  0  0  0  0  0999 V2000
   -7.3134   -6.7409   18.8073 C   0  0  0  0  0  2  0  0  0  0  0  0
   -7.0684  -10.5101   19.3284 C   0  0  0  0  0  0  0  0  0  0  0  0
   -7.2009   -6.7433   21.2895 C   0  0  0  0  0  2  0  0  0  0  0  0
   -7.1696   -9.2955   18.6310 C   0  0  0  0  0  3  0  0  0  0  0  0
   -5.6028  -12.3581   18.5802 C   0  0  0  0  0  2  0  0  0  0  0  0
   -7.0400   -9.2981   21.4470 C   0  0  0  0  0  3  0  0  0  0  0  0
   -7.0117  -11.7907   18.5624 C   0  0  0  0  0  3  0  0  0  0  0  0
   -7.3113   -5.8408   20.0517 C   0  0  0  0  0  2  0  0  0  0  0  0
   -7.9029  -12.7082   19.0919 F   0  0  0  0  0  0  0  0  0  0  0  0
   -7.1460   -8.1076   20.7277 C   0  0  0  0  0  0  0  0  0  0  0  0
   -5.5320  -13.4720   17.7442 O   0  0  0  0  0  1  0  0  0  0  0  0
   -6.9998  -10.5076   20.7373 C   0  0  0  0  0  3  0  0  0  0  0  0
   -7.2083   -8.1062   19.3593 C   0  0  0  0  0  0  0  0  0  0  0  0
  1 13  1  0
  1  8  1  0
  2 12  2  0
  4  2  1  0
  4 13  2  0
  5  7  1  0
  7  9  1  0
  7  2  1  0
  8  3  1  0
 10  3  1  0
 10  6  2  0
 11  5  1  0
 12  6  1  0
 13 10  1  0
M  RAD  8   1   3   3   3   4   2   5   3   6   2   7   2   8   3  11   2
M  RAD  1  12   2
M  END
$$$$
/tmp/tmpxd5qtg0b
     RDKit          3D

 20 23  0  0  1  0  0  0  0  0999 V2000
   -1.2836   -9.2909   16.1214 C   0  0  0  0  0  2  0  0  0  0  0  0
   -2.6779   -8.9286   15.6527 C   0  0  0  0  0  3  0  0  0  0  0  0
   -7.0669   -9.4569   19.2234 C   0  0  0  0  0  0  0  0  0  0  0  0
   -8.6193   -8.4558   17.6101 C   0  0  0  0  0  3  0  0  0  0  0  0
   -8.4772   -6.2456   19.3778 C   0  0  0  0  0  3  0  0  0  0  0  0
   -3.0590   -9.7965   14.5366 N   0  0  0  0  0  2  0  0  0  0  0  0
   -9.3494   -7.2850   17.3453 C   0  0  0  0  0  3  0  0  0  0  0  0
   -5.8107  -12.9143   17.0033 O   0  0  0  0  0  1  0  0  0  0  0  0
   -7.7618   -7.4179   19.6189 C   0  0  0  0  0  0  0  0  0  0  0  0
   -4.0025  -11.5189   16.0194 C   0  0  0  0  0  3  0  0  0  0  0  0
   -6.9764   -7.6183   20.6231 N   0  0  0  0  0  0  0  0  0  0  0  0
   -7.8345   -8.4878   18.7642 C   0  0  0  0  0  0  0  0  0  0  0  0
   -5.6311  -10.6467   17.6489 C   0  0  0  0  0  3  0  0  0  0  0  0
   -2.4730   -9.7101   16.9620 C   0  0  0  0  0  3  0  0  0  0  0  0
   -9.2796   -6.1859   18.2253 C   0  0  0  0  0  3  0  0  0  0  0  0
   -6.4213   -8.9661   20.4826 C   0  0  0  0  0  2  0  0  0  0  0  0
   -4.2825  -10.5019   14.9050 C   0  0  0  0  0  2  0  0  0  0  0  0
   -5.1845  -11.6749   16.9263 C   0  0  0  0  0  0  0  0  0  0  0  0
   -6.8055  -10.7673   18.5604 C   0  0  0  0  0  2  0  0  0  0  0  0
   -2.7142  -11.2146   16.7993 C   0  0  0  0  0  2  0  0  0  0  0  0
  2  1  1  0
  2 14  1  0
  3 16  1  0
  4 12  1  0
  5  9  1  0
  6 17  1  0
  6  2  1  0
  7  4  2  0
  7 15  1  0
  9 11  2  0
 10 20  1  0
 10 18  1  0
 12  3  2  0
 12  9  1  0
 13 19  1  0
 14  1  1  0
 14 20  1  0
 15  5  2  0
 16 11  1  0
 17 10  1  0
 18  8  1  0
 18 13  2  0
 19  3  1  0
M  RAD  8   1   3   2   2   4   2   5   2   6   2   7   2   8   2  10   2
M  RAD  7  13   2  14   2  15   2  16   3  17   3  19   3  20   3
M  END
$$$$
/tmp/tmp1m90dfqw
     RDKit          3D

 20 22  0  0  1  0  0  0  0  0999 V2000
   -7.0084  -10.1417   18.1558 C   0  0  0  0  0  2  0  0  0  0  0  0
   -8.8301   -9.3539   20.4971 C   0  0  0  0  0  2  0  0  0  0  0  0
   -5.2338  -10.7692   15.0096 C   0  0  0  0  0  3  0  0  0  0  0  0
   -8.0561   -8.9819   21.7496 C   0  0  0  0  0  2  0  0  0  0  0  0
   -5.6324   -6.5417   18.9903 C   0  0  0  0  0  2  0  0  0  0  0  0
   -7.7643  -11.5912   20.0706 C   0  0  0  0  0  2  0  0  0  0  0  0
   -5.5218   -7.4054   16.7260 N   0  0  0  0  0  2  0  0  0  0  0  0
   -4.9177   -8.4455   15.9051 C   0  0  0  0  0  3  0  0  0  0  0  0
   -4.6476   -7.8723   14.5241 C   0  0  0  0  0  1  0  0  0  0  0  0
   -5.9647  -10.3434   17.1282 C   0  0  0  0  0  0  0  0  0  0  0  0
   -9.0530  -10.8569   20.4286 C   0  0  0  0  0  2  0  0  0  0  0  0
   -5.0627  -11.8444   15.7098 N   0  0  0  0  0  0  0  0  0  0  0  0
   -4.8983   -7.4659   18.0370 C   0  0  0  0  0  2  0  0  0  0  0  0
   -5.2021   -6.8214   20.4205 C   0  0  0  0  0  2  0  0  0  0  0  0
   -7.4719  -11.5408   18.5756 C   0  0  0  0  0  3  0  0  0  0  0  0
   -5.8942   -8.0663   20.9497 C   0  0  0  0  0  2  0  0  0  0  0  0
   -7.2654   -7.7129   21.4994 C   0  0  0  0  0  2  0  0  0  0  0  0
   -6.1460  -12.7424   18.1747 S   0  0  0  0  0  0  0  0  0  0  0  0
   -5.8556   -9.6554   15.8099 C   0  0  0  0  0  3  0  0  0  0  0  0
   -5.5020  -11.5546   17.0243 C   0  0  0  0  0  0  0  0  0  0  0  0
  2  4  1  0
  3 12  2  0
  5 14  1  0
  6 11  1  0
  7 13  1  0
  8  9  1  0
  8 19  1  0
  8  7  1  0
 10  1  1  0
 11  2  1  0
 12 20  1  0
 13  5  1  0
 14 16  1  0
 15  1  1  0
 15  6  1  0
 16 17  1  0
 17  4  1  0
 18 15  1  0
 19  3  1  0
 19 10  1  0
 20 10  2  0
 20 18  1  0
M  RAD  8   1   3   2   3   3   2   4   3   5   3   6   3   7   2   8   2
M  RAD  8   9   2  11   3  13   3  14   3  15   2  16   3  17   3  19   2
M  END
$$$$
/tmp/tmpa334rcja
     RDKit          3D

 20 22  0  0  1  0  0  0  0  0999 V2000
   -4.9379   -7.7628   19.0284 C   0  0  0  0  0  2  0  0  0  0  0  0
   -9.2926   -9.0473   20.4400 N   0  0  0  0  0  0  0  0  0  0  0  0
   -2.2204   -9.4221   19.5550 C   0  0  0  0  0  2  0  0  0  0  0  0
   -7.9156   -7.3596   21.5729 C   0  0  0  0  0  1  0  0  0  0  0  0
   -7.4366   -8.1507   19.2216 C   0  0  0  0  0  0  0  0  0  0  0  0
   -3.5463   -8.9797   16.0696 C   0  0  0  0  0  3  0  0  0  0  0  0
   -5.6796   -8.9426   16.9242 C   0  0  0  0  0  0  0  0  0  0  0  0
   -4.8125   -9.0049   18.1321 C   0  0  0  0  0  3  0  0  0  0  0  0
   -3.4833   -9.0586   17.5294 N   0  0  0  0  0  0  0  0  0  0  0  0
   -4.9322   -8.9143   15.7626 O   0  0  0  0  0  0  0  0  0  0  0  0
   -2.2528   -9.2522   18.2391 C   0  0  0  0  0  3  0  0  0  0  0  0
   -6.9785   -8.9841   16.9282 N   0  0  0  0  0  0  0  0  0  0  0  0
   -2.7050   -9.8940   14.1393 N   0  0  0  0  0  1  0  0  0  0  0  0
   -8.2207   -8.2124   20.3878 C   0  0  0  0  0  0  0  0  0  0  0  0
   -6.3340   -7.1377   19.0874 C   0  0  0  0  0  2  0  0  0  0  0  0
   -9.2621  -10.6156   17.1437 O   0  0  0  0  0  1  0  0  0  0  0  0
   -8.8941   -9.8082   18.2131 C   0  0  0  0  0  0  0  0  0  0  0  0
   -7.7680   -8.9812   18.1294 C   0  0  0  0  0  0  0  0  0  0  0  0
   -2.9755  -10.1828   15.4829 N   0  0  0  0  0  2  0  0  0  0  0  0
   -9.6442   -9.8322   19.3882 C   0  0  0  0  0  3  0  0  0  0  0  0
  1 15  1  0
  5 14  2  0
  6 19  1  0
  6 10  1  0
  6  9  1  0
  7 12  2  0
  8  7  1  0
  8  1  1  0
  9 11  1  0
  9  8  1  0
 10  7  1  0
 11  3  2  0
 12 18  1  0
 14  2  1  0
 14  4  1  0
 15  5  1  0
 16 17  1  0
 17 20  1  0
 18  5  1  0
 18 17  2  0
 19 13  1  0
 20  2  2  0
M  RAD  8   1   3   3   3   4   2   6   2   8   2  11   2  13   3  15   3
M  RAD  3  16   2  19   2  20   2
M  END
$$$$
/tmp/tmp___thobg
     RDKit          3D

 20 23  0  0  1  0  0  0  0  0999 V2000
   -6.7921   -8.3119   20.3347 C   0  0  0  0  0  3  0  0  0  0  0  0
   -5.1153  -10.2928   15.2869 N   0  0  0  0  0  0  0  0  0  0  0  0
   -6.7643   -5.9687   19.7268 C   0  0  0  0  0  3  0  0  0  0  0  0
   -7.8618  -10.9516   19.4031 C   0  0  0  0  0  3  0  0  0  0  0  0
   -3.9211   -9.5585   14.8786 C   0  0  0  0  0  3  0  0  0  0  0  0
   -2.9178  -10.5136   14.2646 C   0  0  0  0  0  1  0  0  0  0  0  0
   -8.1350  -12.3331   19.1068 C   0  0  0  0  0  3  0  0  0  0  0  0
   -4.3183   -9.0882   17.2062 C   0  0  0  0  0  2  0  0  0  0  0  0
   -6.8531  -13.2438   16.8696 O   0  0  0  0  0  0  0  0  0  0  0  0
   -6.9811  -10.0961   18.5990 C   0  0  0  0  0  0  0  0  0  0  0  0
   -3.3117   -8.8926   16.1040 C   0  0  0  0  0  2  0  0  0  0  0  0
   -6.8659   -6.3177   18.3777 C   0  0  0  0  0  3  0  0  0  0  0  0
   -6.8776   -8.6727   18.9816 C   0  0  0  0  0  0  0  0  0  0  0  0
   -5.3409   -9.9271   16.6218 N   0  0  0  0  0  0  0  0  0  0  0  0
   -6.1452   -9.7954   14.5605 O   0  0  0  0  0  1  0  0  0  0  0  0
   -6.6317  -11.9305   17.2214 C   0  0  0  0  0  0  0  0  0  0  0  0
   -6.9282   -7.6639   18.0070 C   0  0  0  0  0  3  0  0  0  0  0  0
   -6.7301   -6.9655   20.7055 C   0  0  0  0  0  3  0  0  0  0  0  0
   -7.4566  -12.6979   17.9808 C   0  0  0  0  0  0  0  0  0  0  0  0
   -6.3030  -10.6234   17.4281 C   0  0  0  0  0  0  0  0  0  0  0  0
  1 18  2  0
  2 14  1  0
  3 18  1  0
  5  2  1  0
  5 11  1  0
  5  6  1  0
  7  4  2  0
  8 14  1  0
  9 16  1  0
  9 19  1  0
 10 13  1  0
 10  4  1  0
 11  8  1  0
 12  3  2  0
 13  1  1  0
 14 20  1  0
 15  2  1  0
 16 20  1  0
 16 19  2  0
 17 12  1  0
 17 13  2  0
 19  7  1  0
 20 10  2  0
M  RAD  8   1   2   3   2   4   2   5   2   6   2   7   2   8   3  11   3
M  RAD  4  12   2  15   2  17   2  18   2
M  END
$$$$

     RDKit          3D

 14 13  0  0  0  0  0  0  0  0999 V2000
   -7.4045  -10.5200   20.5975 C   0  0  0  0  0  0  0  0  0  0  0  0
   -6.1732  -11.4358   17.4974 N   0  0  0  0  0  2  0  0  0  0  0  0
   -7.2150  -12.5421   19.3667 C   0  0  0  0  0  0  0  0  0  0  0  0
   -7.2536   -8.0493   15.1569 O   0  0  0  0  0  1  0  0  0  0  0  0
   -7.5974   -9.2978   20.6174 O   0  0  0  0  0  0  0  0  0  0  0  0
   -6.4735  -10.7628   16.2478 C   0  0  0  0  0  2  0  0  0  0  0  0
   -5.1933  -10.2118   15.6507 C   0  0  0  0  0  2  0  0  0  0  0  0
   -5.9884   -8.0407   14.5691 C   0  0  0  0  0  3  0  0  0  0  0  0
   -4.2890   -9.4532   13.5234 N   0  0  0  0  0  1  0  0  0  0  0  0
   -7.2059  -11.7771   20.5767 N   0  0  0  0  0  0  0  0  0  0  0  0
   -5.0330   -7.2063   15.4089 C   0  0  0  0  0  1  0  0  0  0  0  0
   -5.4837   -9.4713   14.3497 C   0  0  0  0  0  3  0  0  0  0  0  0
   -7.4390  -11.9019   18.0343 C   0  0  0  0  0  2  0  0  0  0  0  0
   -7.0004  -13.7808   19.4205 O   0  0  0  0  0  0  0  0  0  0  0  0
  1  5  2  0
  2 13  1  0
  3 10  1  0
  6  2  1  0
  7  6  1  0
  8  4  1  0
  8 11  1  0
 10  1  2  0
 12  9  1  0
 12  8  1  0
 12  7  1  0
 13  3  1  0
 14  3  2  0
M  RAD  8   2   2   4   2   6   3   7   3   8   2   9   3  11   2  12   2
M  RAD  1  13   3
M  END
$$$$
/tmp/tmpjpddxs0z
     RDKit          3D

 20 22  0  0  1  0  0  0  0  0999 V2000
   -6.7686   -6.4523   15.1278 O   0  0  0  0  0  1  0  0  0  0  0  0
   -5.0384   -7.7418   19.2160 N   0  0  0  0  0  2  0  0  0  0  0  0
   -6.8855  -14.3210   18.5316 C   0  0  0  0  0  1  0  0  0  0  0  0
   -7.7716  -10.7587   19.3936 C   0  0  0  0  0  0  0  0  0  0  0  0
   -6.2790   -7.5369   15.8531 C   0  0  0  0  0  2  0  0  0  0  0  0
   -6.1903  -12.3978   17.1536 C   0  0  0  0  0  2  0  0  0  0  0  0
   -6.5442   -7.7788   19.4710 C   0  0  0  0  0  0  0  0  0  0  0  0
   -7.1537  -10.4906   20.6517 N   0  0  0  0  0  0  0  0  0  0  0  0
   -2.7801   -9.0026   16.1135 C   0  0  0  0  0  1  0  0  0  0  0  0
   -7.9492   -9.6614   18.6591 C   0  0  0  0  0  3  0  0  0  0  0  0
   -7.5978   -8.5449   19.5306 C   0  0  0  0  0  0  0  0  0  0  0  0
   -5.6338   -7.4003   20.4244 C   0  0  0  0  0  3  0  0  0  0  0  0
   -4.8427   -7.8089   15.4485 C   0  0  0  0  0  2  0  0  0  0  0  0
   -5.8975   -8.5558   21.2819 N   0  0  0  0  0  2  0  0  0  0  0  0
   -6.6726  -12.8222   18.5312 C   0  0  0  0  0  3  0  0  0  0  0  0
   -5.3544  -11.1373   17.2519 C   0  0  0  0  0  2  0  0  0  0  0  0
   -7.0637   -9.2053   20.7217 C   0  0  0  0  0  0  0  0  0  0  0  0
   -4.2894   -8.9844   16.2325 C   0  0  0  0  0  3  0  0  0  0  0  0
   -7.9912  -12.1410   18.8768 C   0  0  0  0  0  2  0  0  0  0  0  0
   -4.9602  -10.5441   15.5854 S   0  0  0  0  0  0  0  0  0  0  0  0
  1  5  1  0
  2  7  1  0
  4  8  1  0
  5 13  1  0
  6 15  1  0
  7 12  1  0
 10 11  1  0
 10  4  2  0
 11  7  2  0
 11 17  1  0
 12  2  1  0
 12 14  1  0
 13 18  1  0
 15  3  1  0
 15 19  1  0
 16  6  1  0
 17  8  2  0
 17 14  1  0
 18  9  1  0
 18 20  1  0
 19  4  1  0
 20 16  1  0
M  RAD  8   1   2   2   2   3   2   5   3   6   3   9   2  10   2  12   2
M  RAD  6  13   3  14   2  15   2  16   3  18   2  19   3
M  END
$$$$
/tmp/tmpva55_wgv
     RDKit          3D

 20 21  0  0  1  0  0  0  0  0999 V2000
   -7.0366   -9.7021   19.9196 C   0  0  0  0  0  0  0  0  0  0  0  0
   -5.9404   -9.9236   19.0738 C   0  0  0  0  0  3  0  0  0  0  0  0
   -7.4916   -6.6841   17.4634 C   0  0  0  0  0  2  0  0  0  0  0  0
   -4.7424  -12.9737   15.6903 C   0  0  0  0  0  2  0  0  0  0  0  0
   -6.4509   -6.9709   19.8241 S   0  0  0  0  0  0  0  0  0  0  0  0
   -3.2586  -10.1200   17.7264 Cl  0  0  0  0  0  0  0  0  0  0  0  0
   -5.7285  -11.1604   18.4489 C   0  0  0  0  0  0  0  0  0  0  0  0
   -6.6533  -12.2017   18.6720 C   0  0  0  0  0  0  0  0  0  0  0  0
   -7.8849   -8.2413   21.8074 C   0  0  0  0  0  1  0  0  0  0  0  0
   -7.0604  -13.3171   16.5919 N   0  0  0  0  0  2  0  0  0  0  0  0
   -7.7592  -11.9855   19.4969 C   0  0  0  0  0  3  0  0  0  0  0  0
   -9.0833  -10.5858   20.9184 O   0  0  0  0  0  1  0  0  0  0  0  0
   -6.0579  -13.7630   15.6259 C   0  0  0  0  0  2  0  0  0  0  0  0
   -6.5551  -13.5032   17.9453 C   0  0  0  0  0  2  0  0  0  0  0  0
   -7.8859   -6.6103   18.8594 N   0  0  0  0  0  2  0  0  0  0  0  0
   -7.7700   -8.0120   16.9460 N   0  0  0  0  0  1  0  0  0  0  0  0
   -7.2021   -8.4082   20.5337 N   0  0  0  0  0  0  0  0  0  0  0  0
   -4.5280  -11.3681   17.5541 C   0  0  0  0  0  3  0  0  0  0  0  0
   -7.9558  -10.7536   20.1239 C   0  0  0  0  0  0  0  0  0  0  0  0
   -4.9200  -11.5154   16.0916 C   0  0  0  0  0  2  0  0  0  0  0  0
  1 17  1  0
  1 19  2  0
  2  1  1  0
  3 15  1  0
  4 20  1  0
  4 13  1  0
  5 17  1  0
  7  2  2  0
  7  8  1  0
  8 11  2  0
 10 14  1  0
 11 19  1  0
 13 10  1  0
 14  8  1  0
 15  5  1  0
 16  3  1  0
 17  9  1  0
 18  6  1  0
 18  7  1  0
 19 12  1  0
 20 18  1  0
M  RAD  8   2   2   3   3   4   3   9   2  10   2  11   2  12   2  13   3
M  RAD  5  14   3  15   2  16   3  18   2  20   3
M  END
$$$$
/tmp/tmp_gdduq4f
     RDKit          3D

 20 20  0  0  1  0  0  0  0  0999 V2000
   -6.9597   -9.4624   20.3515 C   0  0  0  0  0  3  0  0  0  0  0  0
   -7.4968   -8.5474   18.1977 O   0  0  0  0  0  1  0  0  0  0  0  0
   -3.7646   -9.0019   14.7115 N   0  0  0  0  0  2  0  0  0  0  0  0
   -3.7512  -10.2697   16.8097 C   0  0  0  0  0  2  0  0  0  0  0  0
   -7.6843   -8.3639   19.5686 C   0  0  0  0  0  3  0  0  0  0  0  0
   -3.2940   -7.6794   14.9843 C   0  0  0  0  0  0  0  0  0  0  0  0
   -7.5347  -10.7672   20.0861 C   0  0  0  0  0  0  0  0  0  0  0  0
   -3.2439  -10.1900   15.3758 C   0  0  0  0  0  2  0  0  0  0  0  0
   -3.8195   -6.7014   14.3930 O   0  0  0  0  0  0  0  0  0  0  0  0
   -7.3086   -8.7191   22.7301 O   0  0  0  0  0  0  0  0  0  0  0  0
   -7.1469   -6.9977   19.9549 C   0  0  0  0  0  1  0  0  0  0  0  0
   -4.8906  -12.9625   16.3263 C   0  0  0  0  0  1  0  0  0  0  0  0
   -7.2318  -11.9471   16.6930 C   0  0  0  0  0  2  0  0  0  0  0  0
   -7.3912   -9.4852   21.7348 C   0  0  0  0  0  0  0  0  0  0  0  0
   -7.9582  -10.7957   21.4744 N   0  0  0  0  0  2  0  0  0  0  0  0
   -7.5985  -11.5861   19.0730 C   0  0  0  0  0  0  0  0  0  0  0  0
   -5.7481  -11.7707   16.6144 C   0  0  0  0  0  0  0  0  0  0  0  0
   -7.6532  -12.3984   18.0535 C   0  0  0  0  0  3  0  0  0  0  0  0
   -2.1857   -7.4359   15.9515 C   0  0  0  0  0  1  0  0  0  0  0  0
   -5.2225  -10.5603   16.8469 C   0  0  0  0  0  3  0  0  0  0  0  0
  1  5  1  0
  1  7  1  0
  1 14  1  0
  2  5  1  0
  3  6  1  0
  3  8  1  0
  4 20  1  0
  5 11  1  0
  6  9  2  0
  6 19  1  0
  7 15  1  0
  8  4  1  0
 12 17  1  0
 13 18  1  0
 14 10  2  0
 15 14  1  0
 16  7  2  0
 17 20  2  0
 17 13  1  0
 18 16  2  0
M  RAD  8   1   2   2   2   3   2   4   3   5   2   8   3  11   2  12   2
M  RAD  5  13   3  15   2  18   2  19   2  20   2
M  END
$$$$

     RDKit          3D

 11 12  0  0  0  0  0  0  0  0999 V2000
   -5.6919   -7.7132   18.0684 C   0  0  0  0  0  3  0  0  0  0  0  0
   -7.2714  -10.7283   20.5162 C   0  0  0  0  0  3  0  0  0  0  0  0
   -6.2163   -8.7217   18.8784 C   0  0  0  0  0  0  0  0  0  0  0  0
   -6.7585  -11.0485   19.2555 C   0  0  0  0  0  3  0  0  0  0  0  0
   -7.2620   -9.4049   20.9698 C   0  0  0  0  0  0  0  0  0  0  0  0
   -6.7067   -7.0553   20.5714 C   0  0  0  0  0  3  0  0  0  0  0  0
   -5.6807   -6.4252   18.5054 N   0  0  0  0  0  0  0  0  0  0  0  0
   -6.2312  -10.0466   18.4367 C   0  0  0  0  0  3  0  0  0  0  0  0
   -7.7914   -9.1067   22.2592 N   0  0  0  0  0  1  0  0  0  0  0  0
   -6.7330   -8.3906   20.1516 C   0  0  0  0  0  0  0  0  0  0  0  0
   -6.1719   -6.0800   19.7263 C   0  0  0  0  0  3  0  0  0  0  0  0
  1  7  2  0
  1  3  1  0
  2  5  2  0
  3 10  2  0
  4  2  1  0
  5  9  1  0
  7 11  1  0
  8  3  1  0
  8  4  2  0
 10  6  1  0
 10  5  1  0
 11  6  2  0
M  RAD  7   1   2   2   2   4   2   6   2   8   2   9   3  11   2
M  END
$$$$
/tmp/tmp2lmwcfrl
     RDKit          3D

 20 22  0  0  1  0  0  0  0  0999 V2000
   -4.9333  -11.2932   15.9423 C   0  0  0  0  0  2  0  0  0  0  0  0
   -5.3853  -12.0324   14.6924 C   0  0  0  0  0  2  0  0  0  0  0  0
   -6.8011   -8.7194   19.9510 N   0  0  0  0  0  0  0  0  0  0  0  0
   -7.2109  -10.8670   19.5466 C   0  0  0  0  0  0  0  0  0  0  0  0
   -7.8237  -10.5789   20.7571 O   0  0  0  0  0  0  0  0  0  0  0  0
   -5.8863   -9.7602   17.7203 C   0  0  0  0  0  3  0  0  0  0  0  0
   -6.0916   -7.4530   19.9328 C   0  0  0  0  0  2  0  0  0  0  0  0
   -4.7673   -8.3865   14.9151 C   0  0  0  0  0  2  0  0  0  0  0  0
   -7.1692  -12.1674   18.8968 C   0  0  0  0  0  0  0  0  0  0  0  0
   -6.6248   -9.8025   19.0481 C   0  0  0  0  0  0  0  0  0  0  0  0
   -6.0932  -11.0804   16.9063 C   0  0  0  0  0  3  0  0  0  0  0  0
   -5.7090   -7.2139   17.4876 C   0  0  0  0  0  2  0  0  0  0  0  0
   -6.3404   -8.4951   16.9404 C   0  0  0  0  0  3  0  0  0  0  0  0
   -7.8503  -13.1326   19.3303 O   0  0  0  0  0  0  0  0  0  0  0  0
   -5.5789  -13.3849   14.9738 O   0  0  0  0  0  1  0  0  0  0  0  0
   -6.2009   -8.5539   15.4104 C   0  0  0  0  0  2  0  0  0  0  0  0
   -4.4730   -6.9798   14.7062 N   0  0  0  0  0  1  0  0  0  0  0  0
   -6.2175  -12.3523   17.7649 C   0  0  0  0  0  2  0  0  0  0  0  0
   -6.4610   -6.6702   18.6890 C   0  0  0  0  0  2  0  0  0  0  0  0
   -7.5832   -9.2105   21.0785 C   0  0  0  0  0  2  0  0  0  0  0  0
  2  1  1  0
  3  7  1  0
  3 20  1  0
  4  5  1  0
  5 20  1  0
  6 10  1  0
  8 16  1  0
  9 14  2  0
  9  4  1  0
 10  4  2  0
 10  3  1  0
 11  1  1  0
 11 18  1  0
 11  6  1  0
 12 19  1  0
 13 16  1  0
 13  6  1  0
 13 12  1  0
 15  2  1  0
 17  8  1  0
 18  9  1  0
 19  7  1  0
M  RAD  8   1   3   2   3   6   2   7   3   8   3  11   2  12   3  13   2
M  RAD  6  15   2  16   3  17   3  18   3  19   3  20   3
M  END
$$$$
/tmp/tmp1d97vpm0
     RDKit          3D

 20 22  0  0  0  0  0  0  0  0999 V2000
   -7.5819  -13.1558   17.1114 O   0  0  0  0  0  1  0  0  0  0  0  0
   -5.3306   -8.2954   13.9894 N   0  0  0  0  0  2  0  0  0  0  0  0
   -6.5325  -11.2255   18.2544 C   0  0  0  0  0  0  0  0  0  0  0  0
   -4.4518  -11.4024   15.9895 C   0  0  0  0  0  2  0  0  0  0  0  0
   -5.6552   -7.9035   15.3642 C   0  0  0  0  0  2  0  0  0  0  0  0
   -6.9087   -9.3715   20.6166 N   0  0  0  0  0  0  0  0  0  0  0  0
   -8.3338   -8.6595   22.3883 C   0  0  0  0  0  3  0  0  0  0  0  0
   -9.0034  -10.3985   20.9022 N   0  0  0  0  0  0  0  0  0  0  0  0
   -6.5481  -12.2253   17.1486 C   0  0  0  0  0  0  0  0  0  0  0  0
   -7.8322  -10.2899   20.2202 C   0  0  0  0  0  0  0  0  0  0  0  0
   -7.1376   -8.5595   21.6810 C   0  0  0  0  0  0  0  0  0  0  0  0
   -5.6334  -12.3019   16.1714 C   0  0  0  0  0  3  0  0  0  0  0  0
   -5.3762  -10.2866   18.4484 C   0  0  0  0  0  2  0  0  0  0  0  0
   -7.6013  -11.1816   19.0660 C   0  0  0  0  0  3  0  0  0  0  0  0
   -4.8740  -10.0624   15.4793 C   0  0  0  0  0  0  0  0  0  0  0  0
   -6.1122   -7.5650   22.0905 C   0  0  0  0  0  1  0  0  0  0  0  0
   -4.8377   -9.6752   14.0538 C   0  0  0  0  0  2  0  0  0  0  0  0
   -9.2693   -9.6047   21.9723 C   0  0  0  0  0  3  0  0  0  0  0  0
   -5.3469   -9.0750   16.2062 C   0  0  0  0  0  0  0  0  0  0  0  0
   -5.5494   -9.0979   17.6241 N   0  0  0  0  0  2  0  0  0  0  0  0
  1  9  1  0
  2  5  1  0
  3 14  2  0
  4 15  1  0
  4 12  1  0
  5 19  1  0
  6 10  2  0
  6 11  1  0
  7 18  1  0
  8 18  2  0
  9  3  1  0
 10  8  1  0
 11  7  2  0
 12  9  2  0
 13  3  1  0
 14 10  1  0
 15 19  2  0
 16 11  1  0
 17  2  1  0
 17 15  1  0
 19 20  1  0
 20 13  1  0
M  RAD  8   1   2   2   2   4   3   5   3   7   2  12   2  13   3  14   2
M  RAD  4  16   2  17   3  18   2  20   2
M  END
$$$$
/tmp/tmpkf2caizj
     RDKit          3D

 20 24  0  0  1  0  0  0  0  0999 V2000
   -8.2149   -9.4692   20.6226 N   0  0  0  0  0  0  0  0  0  0  0  0
   -4.2676   -7.1971   15.5943 C   0  0  0  0  0  2  0  0  0  0  0  0
   -5.2834  -13.3670   15.9999 C   0  0  0  0  0  1  0  0  0  0  0  0
   -4.9579  -12.0098   16.5856 C   0  0  0  0  0  3  0  0  0  0  0  0
   -5.0174  -10.9584   15.4950 C   0  0  0  0  0  2  0  0  0  0  0  0
   -8.1156  -11.7134   19.6745 N   0  0  0  0  0  1  0  0  0  0  0  0
   -5.8300  -10.2877   18.1504 N   0  0  0  0  0  0  0  0  0  0  0  0
   -7.5397  -10.4409   19.9509 C   0  0  0  0  0  0  0  0  0  0  0  0
   -5.9457   -7.5755   18.9798 C   0  0  0  0  0  0  0  0  0  0  0  0
   -4.7571   -8.5234   15.0241 C   0  0  0  0  0  2  0  0  0  0  0  0
   -4.5666   -9.6232   16.0652 C   0  0  0  0  0  3  0  0  0  0  0  0
   -6.7555   -6.0284   19.3968 S   0  0  0  0  0  0  0  0  0  0  0  0
   -6.3918   -9.9347   19.3446 C   0  0  0  0  0  0  0  0  0  0  0  0
   -6.3631   -8.5789   19.7842 C   0  0  0  0  0  0  0  0  0  0  0  0
   -7.4586   -8.3516   20.5251 C   0  0  0  0  0  0  0  0  0  0  0  0
   -4.9834   -6.8857   16.8275 N   0  0  0  0  0  2  0  0  0  0  0  0
   -5.9832  -11.6624   17.6562 C   0  0  0  0  0  2  0  0  0  0  0  0
   -7.9602   -6.9491   20.4689 C   0  0  0  0  0  2  0  0  0  0  0  0
   -5.3695   -7.9135   17.7472 C   0  0  0  0  0  0  0  0  0  0  0  0
   -5.2758   -9.2881   17.3633 C   0  0  0  0  0  0  0  0  0  0  0  0
  2 16  1  0
  4  3  1  0
  4 17  1  0
  5  4  1  0
  6  8  1  0
  7 13  1  0
  8  1  1  0
  9 14  2  0
  9 12  1  0
 10  2  1  0
 11 10  1  0
 11  5  1  0
 11 20  1  0
 12 18  1  0
 13 14  1  0
 13  8  2  0
 14 15  1  0
 15  1  2  0
 15 18  1  0
 16 19  1  0
 17  7  1  0
 19  9  1  0
 20 19  2  0
 20  7  1  0
M  RAD  8   2   3   3   2   4   2   5   3   6   3  10   3  11   2  16   2
M  RAD  2  17   3  18   3
M  END
$$$$
/tmp/tmpdkjs0gpl
     RDKit          3D

 20 21  0  0  1  0  0  0  0  0999 V2000
   -7.2255  -12.8764   17.8624 C   0  0  0  0  0  3  0  0  0  0  0  0
   -7.4440   -8.0615   20.5188 C   0  0  0  0  0  3  0  0  0  0  0  0
   -6.5315   -8.5129   15.1082 C   0  0  0  0  0  1  0  0  0  0  0  0
   -7.8545  -11.0319   19.3411 C   0  0  0  0  0  3  0  0  0  0  0  0
   -6.1037   -9.9256   21.5294 O   0  0  0  0  0  0  0  0  0  0  0  0
   -8.3207  -11.9408   18.2550 C   0  0  0  0  0  2  0  0  0  0  0  0
   -6.1368   -9.9814   17.8888 C   0  0  0  0  0  0  0  0  0  0  0  0
   -6.8030   -6.7411   20.0848 C   0  0  0  0  0  2  0  0  0  0  0  0
   -6.8526  -10.1565   19.1899 C   0  0  0  0  0  0  0  0  0  0  0  0
   -5.7275  -11.0353   17.1547 C   0  0  0  0  0  3  0  0  0  0  0  0
   -6.6003   -7.6116   17.8442 O   0  0  0  0  0  0  0  0  0  0  0  0
   -6.4893   -9.2570   20.3471 C   0  0  0  0  0  3  0  0  0  0  0  0
   -5.0827  -13.4815   16.9093 C   0  0  0  0  0  1  0  0  0  0  0  0
   -5.9546   -6.8435   18.8177 C   0  0  0  0  0  2  0  0  0  0  0  0
   -6.0586  -12.4595   17.3679 C   0  0  0  0  0  0  0  0  0  0  0  0
   -4.6220   -7.2569   15.7823 O   0  0  0  0  0  1  0  0  0  0  0  0
   -7.1795  -10.5150   22.0173 O   0  0  0  0  0  1  0  0  0  0  0  0
   -5.3004   -8.4561   15.9990 C   0  0  0  0  0  3  0  0  0  0  0  0
   -7.8998   -7.9382   21.8325 O   0  0  0  0  0  1  0  0  0  0  0  0
   -5.6628   -8.5924   17.4866 C   0  0  0  0  0  3  0  0  0  0  0  0
  1  6  1  0
  2 19  1  0
  5 17  1  0
  6  4  1  0
  7  9  1  0
  8  2  1  0
  9  4  2  0
  9 12  1  0
 10  7  2  0
 11 14  1  0
 12  2  1  0
 12  5  1  0
 13 15  1  0
 14  8  1  0
 15 10  1  0
 15  1  2  0
 16 18  1  0
 18  3  1  0
 20 18  1  0
 20  7  1  0
 20 11  1  0
M  RAD  8   1   2   2   2   3   2   4   2   6   3   8   3  10   2  12   2
M  RAD  7  13   2  14   3  16   2  17   2  18   2  19   2  20   2
M  END
$$$$
/tmp/tmpufi5v9y2
     RDKit          3D

 20 22  0  0  0  0  0  0  0  0999 V2000
   -3.8294  -10.1651   19.9669 C   0  0  0  0  0  3  0  0  0  0  0  0
   -6.0923   -9.7964   15.8246 N   0  0  0  0  0  0  0  0  0  0  0  0
   -7.2815  -11.0760   20.9313 C   0  0  0  0  0  2  0  0  0  0  0  0
   -6.3951   -7.1603   18.9366 C   0  0  0  0  0  3  0  0  0  0  0  0
   -6.8244   -8.3369   19.5748 C   0  0  0  0  0  3  0  0  0  0  0  0
   -6.5985   -8.4802   15.6753 C   0  0  0  0  0  0  0  0  0  0  0  0
   -7.8254  -12.1661   18.7489 C   0  0  0  0  0  3  0  0  0  0  0  0
   -5.8876   -7.4986   15.3375 O   0  0  0  0  0  0  0  0  0  0  0  0
   -4.7201  -11.1101   20.5729 N   0  0  0  0  0  2  0  0  0  0  0  0
   -4.5336   -9.1138   19.5759 C   0  0  0  0  0  0  0  0  0  0  0  0
   -5.8590   -9.2960   19.8834 C   0  0  0  0  0  0  0  0  0  0  0  0
   -7.5819  -12.3859   20.2086 C   0  0  0  0  0  2  0  0  0  0  0  0
   -7.0296  -11.9661   16.4305 C   0  0  0  0  0  2  0  0  0  0  0  0
   -8.0513   -8.4159   15.9603 C   0  0  0  0  0  2  0  0  0  0  0  0
   -5.0331   -6.9729   18.6203 C   0  0  0  0  0  3  0  0  0  0  0  0
   -6.8109  -12.2119   17.8863 C   0  0  0  0  0  3  0  0  0  0  0  0
   -5.9930  -10.4700   20.4719 C   0  0  0  0  0  0  0  0  0  0  0  0
   -8.3026   -9.7779   16.2695 O   0  0  0  0  0  0  0  0  0  0  0  0
   -4.0831   -7.9591   18.9399 C   0  0  0  0  0  3  0  0  0  0  0  0
   -7.1187  -10.5029   16.1607 C   0  0  0  0  0  0  0  0  0  0  0  0
  2 20  2  0
  3 17  1  0
  4  5  2  0
  4 15  1  0
  5 11  1  0
  6 14  1  0
  6  2  1  0
  7 12  1  0
  8  6  2  0
  9  1  1  0
 10  1  2  0
 11 17  2  0
 11 10  1  0
 12  3  1  0
 13 20  1  0
 13 16  1  0
 14 18  1  0
 15 19  2  0
 16  7  2  0
 17  9  1  0
 19 10  1  0
 20 18  1  0
M  RAD  8   1   2   3   3   4   2   5   2   7   2   9   2  12   3  13   3
M  RAD  4  14   3  15   2  16   2  19   2
M  END
$$$$
/tmp/tmpyko8y9mh
     RDKit          3D

 20 23  0  0  1  0  0  0  0  0999 V2000
   -8.5448  -11.1550   20.2040 C   0  0  0  0  0  2  0  0  0  0  0  0
   -7.1582   -8.3481   20.5014 C   0  0  0  0  0  0  0  0  0  0  0  0
   -6.4189   -7.8184   15.5210 N   0  0  0  0  0  1  0  0  0  0  0  0
   -3.6741  -11.5340   15.5850 C   0  0  0  0  0  2  0  0  0  0  0  0
   -5.5808   -8.0797   18.6387 C   0  0  0  0  0  0  0  0  0  0  0  0
   -4.0176   -9.7644   17.5505 C   0  0  0  0  0  2  0  0  0  0  0  0
   -5.1999   -6.8419   19.1587 C   0  0  0  0  0  3  0  0  0  0  0  0
   -5.5461  -10.5063   14.3655 C   0  0  0  0  0  2  0  0  0  0  0  0
   -5.7763   -6.3529   20.3234 C   0  0  0  0  0  3  0  0  0  0  0  0
   -4.4289  -11.5472   14.2506 C   0  0  0  0  0  2  0  0  0  0  0  0
   -6.5719   -8.8562   19.3022 C   0  0  0  0  0  0  0  0  0  0  0  0
   -6.8764  -10.2192   18.7523 C   0  0  0  0  0  2  0  0  0  0  0  0
   -8.2479   -8.9539   21.3097 C   0  0  0  0  0  3  0  0  0  0  0  0
   -8.3334  -10.5862   18.8278 C   0  0  0  0  0  2  0  0  0  0  0  0
   -8.8364  -10.1055   21.1660 N   0  0  0  0  0  0  0  0  0  0  0  0
   -5.4578  -10.0786   15.7782 C   0  0  0  0  0  0  0  0  0  0  0  0
   -4.4856  -10.6343   16.4328 C   0  0  0  0  0  0  0  0  0  0  0  0
   -5.8182   -8.8145   16.3010 N   0  0  0  0  0  0  0  0  0  0  0  0
   -4.8810   -8.5024   17.3725 C   0  0  0  0  0  3  0  0  0  0  0  0
   -6.7466   -7.1004   20.9806 C   0  0  0  0  0  3  0  0  0  0  0  0
  1 15  1  0
  2 20  2  0
  2 13  1  0
  3 18  1  0
  4 17  1  0
  5  7  1  0
  5 11  2  0
  7  9  2  0
  8 16  1  0
  9 20  1  0
 10  8  1  0
 10  4  1  0
 11  2  1  0
 12 14  1  0
 12 11  1  0
 13 15  2  0
 14  1  1  0
 16 18  1  0
 16 17  2  0
 17  6  1  0
 18 19  1  0
 19  6  1  0
 19  5  1  0
M  RAD  8   1   3   3   3   4   3   6   3   7   2   8   3   9   2  10   3
M  RAD  5  12   3  13   2  14   3  19   2  20   2
M  END
$$$$

     RDKit          3D

 16 17  0  0  0  0  0  0  0  0999 V2000
   -5.0038  -10.7572   18.7909 C   0  0  0  0  0  3  0  0  0  0  0  0
   -7.3983   -9.8103   16.0696 C   0  0  0  0  0  2  0  0  0  0  0  0
   -5.7437   -8.4191   20.5733 C   0  0  0  0  0  3  0  0  0  0  0  0
   -5.2038   -7.1350   18.5469 C   0  0  0  0  0  0  0  0  0  0  0  0
   -5.6403   -8.4665   19.0761 C   0  0  0  0  0  3  0  0  0  0  0  0
   -7.4953   -6.5183   17.6350 C   0  0  0  0  0  0  0  0  0  0  0  0
   -8.4474   -5.6188   17.8236 C   0  0  0  0  0  2  0  0  0  0  0  0
   -6.1549   -6.1999   18.0272 N   0  0  0  0  0  2  0  0  0  0  0  0
   -6.7991   -8.4884   16.3053 N   0  0  0  0  0  0  0  0  0  0  0  0
   -7.2796   -8.8665   14.9682 C   0  0  0  0  0  2  0  0  0  0  0  0
   -4.7334   -9.5071   18.6380 N   0  0  0  0  0  0  0  0  0  0  0  0
   -3.9956   -6.7907   18.6418 O   0  0  0  0  0  0  0  0  0  0  0  0
   -6.0405   -9.4688   21.3482 C   0  0  0  0  0  3  0  0  0  0  0  0
   -7.7995   -7.6940   16.8795 N   0  0  0  0  0  2  0  0  0  0  0  0
   -6.2719  -10.8008   20.8606 N   0  0  0  0  0  2  0  0  0  0  0  0
   -6.2709  -11.2027   19.4578 C   0  0  0  0  0  2  0  0  0  0  0  0
  1 16  1  0
  2 10  1  0
  2  9  1  0
  3 13  2  0
  4 12  2  0
  5  4  1  0
  5  3  1  0
  6  8  1  0
  7  6  2  0
  8  4  1  0
 10  9  1  0
 11  1  2  0
 11  5  1  0
 14  9  1  0
 14  6  1  0
 15 13  1  0
 16 15  1  0
M  RAD  8   1   2   2   3   3   2   5   2   7   3   8   2  10   3  13   2
M  RAD  3  14   2  15   2  16   3
M  END
$$$$
